sol/case9241pegase.m
function mpc = case9241pegase
%CASE9241PEGASE

%% MATPOWER Case Format : Version 2
mpc.version = '2';

%%-----  Power Flow Data  -----%%
%% system MVA base
mpc.baseMVA = 100;

%% bus data
%	bus_i	type	Pd	Qd	Gs	Bs	area	Vm	Va	baseKV	zone	Vmax	Vmin	lam_P	lam_Q	mu_Vmax	mu_Vmin
mpc.bus = [
	1	1	378.4	98.5	0	16.61	0	1.01831549	-8.5298632	220	6	1.1	0.9	1.0208	0.0015	0.0000	0.0000;
	2	2	0	0	0	0	0	1.05831783	-3.29244528	154	1	1.1	0.9	1.0012	-0.0030	0.0000	0.0000;
	3	1	151	48.8	0	4.69	0	1.03450205	-9.46108372	220	5	1.1	0.9	1.0282	0.0066	0.0000	0.0000;
	4	1	171.41	23.4	0	2.1	0	1.05856719	-5.55223569	220	5	1.1	0.9	1.0143	0.0031	0.0000	0.0000;
	5	1	45.95	14	0	13.34	0	1.00644968	-11.0025716	220	6	1.1	0.9	1.0369	0.0021	0.0000	0.0000;
	6	2	0	0	0	0	0	1.07159445	-3.25795624	380	6	1.1	0.9	1.0096	0.0000	0.0000	0.0000;
	7	1	31.03	10.3	0	0.65	0	0.983707641	-13.2361829	110	21	1.1	0.9	1.0824	0.0355	0.0000	0.0000;
	8	2	0	0	0	0	0	1.06317845	-3.07740682	154	1	1.1	0.9	1.0000	0.0000	0.0000	0.0000;
	9	1	14.3	2	0	1.91	0	1.05958369	-3.11675959	154	1	1.1	0.9	0.9965	0.0012	0.0000	0.0000;
	10	1	134	24.7	0	12.44	0	1.06407502	-17.5989254	220	5	1.1	0.9	1.0426	-0.0082	0.0000	0.0000;
	11	1	0	0	0	0	0	0.980705454	-13.9732426	150	9	1.1	0.9	1.0419	0.0381	0.0000	0.0000;
	12	1	-6.11	2	0	0.47	0	1.05047256	-8.84290362	150	9	1.1	0.9	0.9892	-0.0197	0.0000	0.0000;
	13	1	-22.74	-8.32	0	6.5	0	1.01390121	-7.46896107	220	6	1.1	0.9	1.0145	0.0007	0.0000	0.0000;
	14	1	13.5	14.8	0	132.435168	0	1.14094283	-3.12733556	380	9	1.3	0.7	1.0070	0.0011	0.0000	0.0000;
	15	1	59.67	26.7	0	12.84	0	1.06515498	-13.7263279	220	4	1.1	0.9	1.0325	-0.0001	0.0000	0.0000;
	16	1	30.6	4.3	0	5.15	0	1.05289386	-6.23983979	154	1	1.1	0.9	1.0174	-0.0022	0.0000	0.0000;
	17	1	67.68	12.1	0	2.18	0	0.999238725	-10.5486437	220	3	1.1	0.9	1.0247	0.0044	0.0000	0.0000;
	18	2	0	0	0	0	0	1.03049538	-5.22948886	380	3	1.1	0.9	1.0134	0.0000	0.0000	0.0000;
	19	1	25.33	7.5	0	2.39	0	1.01532379	-10.7723465	110	12	1.1	0.9	1.0517	0.0118	0.0000	0.0000;
	20	1	1.4	0.2	0	4.93	0	1.0612682	-3.5518334	154	1	1.1	0.9	0.9970	0.0010	0.0000	0.0000;
	21	1	161.2	39.3	0	30.71	0	1.05977106	-16.1594948	220	5	1.1	0.9	1.0381	-0.0022	0.0000	0.0000;
	22	1	0	-0	0	0.85	0	1.07596688	-11.1434151	220	5	1.1	0.9	1.0194	0.0035	0.0000	0.0000;
	23	1	19.62	7.1	0	1.15	0	1.05788658	-10.0869077	110	19	1.1	0.9	1.0442	0.0070	0.0000	0.0000;
	24	1	17.22	5.7	0	1.22	0	0.972063065	-12.8573259	110	21	1.1	0.9	1.0867	0.0273	0.0000	0.0000;
	25	2	0	0	0	0	0	1.03249675	-6.11888609	220	3	1.1	0.9	1.0036	0.0000	0.0000	0.0000;
	26	1	167.3	54.8	0	110.54	0	1.0681099	-1.15396307	380	5	1.1	0.9	1.0011	0.0002	0.0000	0.0000;
	27	1	-0	-0	0	14.82	0	1.06417398	-0.720678703	380	13	1.1	0.9	1.0044	-0.0004	0.0000	0.0000;
	28	1	0	0	0	0	0	1.01143803	-13.3113701	150	9	1.1	0.9	1.0427	0.0240	0.0000	0.0000;
	29	1	152.9	49.4	0	27.65	0	1.04087703	-3.29807182	380	5	1.1	0.9	1.0060	0.0008	0.0000	0.0000;
	30	1	-0	0	0	0.56	0	1.03570838	-10.7080273	150	9	1.1	0.9	1.0170	0.0115	0.0000	0.0000;
	31	1	69.68	43.2	0	6.3	0	0.898170738	-17.8830387	150	9	1.3	0.7	1.0927	0.1049	0.0000	0.0000;
	32	2	0	0	0	0	0	1.03498576	-6.37534078	220	4	1.1	0.9	1.0125	-0.0018	0.0000	0.0000;
	33	2	0	0	0	0	0	1.05645127	-5.25533561	220	4	1.1	0.9	0.9991	0.0003	0.0000	0.0000;
	34	1	13.52	4.9	0	1.8	0	1.06933186	-7.25312409	110	19	1.1	0.9	1.0148	0.0029	0.0000	0.0000;
	35	1	10.51	3.5	0	0.31	0	1.03404619	-9.4840372	110	12	1.1	0.9	1.0432	0.0095	0.0000	0.0000;
	36	1	-0	-0	0.12	15.34	0	1.07375977	-4.57023117	220	19	1.1	0.9	1.0118	-0.0018	0.0000	0.0000;
	37	1	9.21	2.6	0	2	0	0.99007925	-10.4686198	110	18	1.1	0.9	1.0356	0.0099	0.0000	0.0000;
	38	1	42.75	12.8	0	13.3	0	1.03044799	-6.14820911	220	8	1.1	0.9	1.0016	0.0030	0.0000	0.0000;
	39	2	0	0	0	0	0	1.02204113	-5.29194107	150	10	1.1	0.9	1.0000	-0.0000	0.0000	0.0000;
	40	1	16.02	4.54	0	0.1	0	1.01965253	-10.465583	110	23	1.1	0.9	1.0600	0.0203	0.0000	0.0000;
	41	1	27.9	4	0	4.23	0	1.08545365	-7.64870681	154	1	1.1	0.9	1.0229	-0.0008	0.0000	0.0000;
	42	1	20.82	7.9	0	26.89	0	1.08582639	-6.81748093	380	4	1.1	0.9	1.0135	-0.0017	0.0000	0.0000;
	43	1	12.6	1.8	0	2.03	0	1.07822683	-3.31253971	154	1	1.1	0.9	1.0029	0.0000	0.0000	0.0000;
	44	1	-0	0	0	7.27	0	1.07095396	-15.6216034	220	5	1.1	0.9	1.0318	-0.0085	0.0000	0.0000;
	45	1	10.11	3.7	0	0.81	0	1.07334292	-7.14795782	110	19	1.1	0.9	1.0143	-0.0015	0.0000	0.0000;
	46	1	10.01	2.7	0	1.14	0	0.976687634	-10.8467123	110	18	1.1	0.9	1.0461	0.0116	0.0000	0.0000;
	47	1	6.31	0	0	0.67	0	1.01408775	-7.20626353	110	18	1.1	0.9	1.0391	0.0068	0.0000	0.0000;
	48	1	2.9	0.9	0	0.6	0	1.06008269	-7.00095843	110	15	1.1	0.9	1.0302	0.0088	0.0000	0.0000;
	49	2	0	0	0	0	0	1.02594069	-5.51212183	220	6	1.1	0.9	1.0082	-0.0000	0.0000	0.0000;
	50	1	48.8	6.9	0	8.71	0	1.07833281	-7.6584023	154	1	1.1	0.9	1.0189	-0.0008	0.0000	0.0000;
	51	2	0	0	0	0	0	1.06879081	-5.29745854	220	4	1.1	0.9	1.0029	0.0001	0.0000	0.0000;
	52	1	127.6	31.8	0	20.51	0	1.05729598	-13.9064739	150	8	1.1	0.9	1.0316	0.0059	0.0000	0.0000;
	53	1	48.65	16.1	0	7.14	0	1.08954145	-1.90306094	220	5	1.1	0.9	1.0010	0.0001	0.0000	0.0000;
	54	1	110.5	-26.8	0	16.37	0	1.05747953	-6.64034676	220	6	1.1	0.9	1.0161	-0.0018	0.0000	0.0000;
	55	1	0	-0	0	1.23	0	1.00114818	-9.64950875	220	3	1.1	0.9	1.0235	0.0056	0.0000	0.0000;
	56	1	140	79.7	0	6.5	0	1.00987968	-13.263316	220	3	1.1	0.9	1.0389	0.0003	0.0000	0.0000;
	57	1	21.6	3	0	3.54	0	1.07796104	-8.80156694	154	1	1.1	0.9	1.0331	0.0004	0.0000	0.0000;
	58	1	0	0	0	2.31	0	1.04114634	-1.41422373	380	5	1.1	0.9	0.9997	-0.0010	0.0000	0.0000;
	59	1	119.2	20.7	0	3.31	0	1.08383713	-11.8865075	220	5	1.1	0.9	1.0283	-0.0051	0.0000	0.0000;
	60	1	0.24	-1.66	0	0.65	0	1.04761881	-5.622002	110	18	1.1	0.9	1.0073	-0.0081	0.0000	0.0000;
	61	1	-0	0	0	58.57	0	0.987903678	0.583924553	380	3	1.1	0.9	0.9996	-0.0003	0.0000	0.0000;
	62	1	-0	0	0	1.34	0	0.998367595	-9.23023435	110	18	1.1	0.9	1.0558	0.0112	0.0000	0.0000;
	63	1	187.9	110.2	0	21.25	0	1.04478915	-10.9008135	380	3	1.1	0.9	1.0270	-0.0333	0.0000	0.0000;
	64	1	14.92	5.5	0	1.31	0	1.06019038	-5.29845409	110	15	1.1	0.9	1.0277	0.0093	0.0000	0.0000;
	65	1	-18.52	6.1	0	0.79	0	0.912540273	-16.2904885	150	9	1.1	0.9	1.0623	0.0978	0.0000	0.0000;
	66	1	4.61	1.7	0	2.32	0	1.09555506	-6.56562924	110	19	1.1	0.9	1.0165	-0.0015	0.0000	0.0000;
	67	1	0	0	0.099501	82.133595	0	1.1	-5.76750943	380	18	1.1	0.9	1.0197	-0.0073	35.4666	0.0000;
	68	1	10.81	5.1	0	1.09	0	0.945047508	-15.3828489	110	18	1.1	0.9	1.0741	0.0184	0.0000	0.0000;
	69	1	62.87	20.5	0	1.15	0	1.05663858	-15.0296752	150	8	1.1	0.9	1.0377	0.0057	0.0000	0.0000;
	70	1	0	0	0	2.64	0	1.059346	-8.88990445	154	1	1.1	0.9	1.0236	-0.0031	0.0000	0.0000;
	71	1	126.3	42.4	0	55.24	0	1.07854934	-16.0875673	150	8	1.1	0.9	1.0381	0.0012	0.0000	0.0000;
	72	1	6.91	-4.6	0	5.75	0	1.0461079	-6.4491766	220	4	1.1	0.9	1.0070	0.0017	0.0000	0.0000;
	73	1	15.72	5.2	0	0.11	0	1.02583363	-10.4289471	110	12	1.1	0.9	1.0424	0.0081	0.0000	0.0000;
	74	1	0	0	0	0	0	1.04952895	-11.0830129	150	9	1.1	0.9	1.0239	0.0171	0.0000	0.0000;
	75	1	38.74	6.1	0	1.17	0	1.07526385	-10.4026279	220	4	1.1	0.9	1.0180	-0.0008	0.0000	0.0000;
	76	1	22.13	10.7	0	14.21	0	1.03052411	-6.14464614	220	8	1.1	0.9	1.0016	0.0030	0.0000	0.0000;
	77	1	-0	-0	0	0.73	0	1.08182802	-7.05597486	220	4	1.1	0.9	1.0063	-0.0001	0.0000	0.0000;
	78	1	0	-0	0	0.83	0	0.996081057	-7.03703234	110	18	1.1	0.9	1.0317	0.0093	0.0000	0.0000;
	79	1	138.8	136.7	0	8.76	0	1.01423656	-6.85909168	380	3	1.1	0.9	1.0192	0.0042	0.0000	0.0000;
	80	2	0	0	0	0	0	1.0900437	-4.46575232	220	23	1.1	0.9	1.0046	-0.0000	0.0000	0.0000;
	81	1	67.76	19.18	0	1.47	0	1.02917764	-3.1896914	150	1	1.1	0.9	1.0075	0.0012	0.0000	0.0000;
	82	1	22.02	5.1	0	0.69	0	1.0377838	-10.1977511	110	1	1.1	0.9	1.0525	0.0097	0.0000	0.0000;
	83	1	0	0	0	6.62	0	0.989788158	-9.45756	220	3	1.1	0.9	1.0264	0.0089	0.0000	0.0000;
	84	1	1	0.3	0	0.19	0	1.06724403	-6.34481405	110	19	1.1	0.9	1.0041	0.0003	0.0000	0.0000;
	85	1	20.9	3	0	5.74	0	1.06044077	-4.72800637	154	1	1.1	0.9	1.0072	-0.0004	0.0000	0.0000;
	86	1	0	0	0	0.12	0	1.06000268	-9.54464867	150	9	1.1	0.9	1.0001	0.0056	0.0000	0.0000;
	87	1	21.52	5.1	0	0.5	0	1.02824998	-2.06958334	110	18	1.1	0.9	1.0040	-0.0004	0.0000	0.0000;
	88	1	71.98	28.8	0	11	0	1.07582574	-7.09522209	220	6	1.1	0.9	1.0184	0.0006	0.0000	0.0000;
	89	1	0	0	0.199111	4.530599	0	1.0266207	-5.83820875	380	2	1.1	0.9	1.0161	0.0040	0.0000	0.0000;
	90	1	363.25	115.39	0	3.95	0	1.07638828	-10.0782918	220	5	1.1	0.9	1.0250	0.0049	0.0000	0.0000;
	91	1	-0	0	0	0.02	0	1.05363115	-13.9449139	150	8	1.1	0.9	1.0261	0.0055	0.0000	0.0000;
	92	1	192.9	73.3	0	20.75	0	1.06487984	-11.452239	380	3	1.1	0.9	1.0297	-0.0516	0.0000	0.0000;
	93	1	17.52	6.3	0	0.26	0	1.09232245	-7.0042523	110	19	1.1	0.9	1.0148	-0.0015	0.0000	0.0000;
	94	1	33.14	12	0	0.65	0	1.0892952	-5.9249419	110	19	1.1	0.9	1.0082	0.0025	0.0000	0.0000;
	95	1	40.45	25	0	9.82	0	0.995021072	-13.8686938	150	9	1.1	0.9	1.0464	0.0332	0.0000	0.0000;
	96	1	193.17	53.37	0	4.58	0	1.07510338	-4.59484799	220	5	1.1	0.9	1.0088	0.0017	0.0000	0.0000;
	97	1	0	0	0	9.38	0	1.03420774	-2.15419562	380	1	1.1	0.9	1.0015	0.0000	0.0000	0.0000;
	98	1	90.7	25.5	0	3.11	0	1.07591511	-17.2036976	220	3	1.1	0.9	1.0326	-0.0335	0.0000	0.0000;
	99	1	176.3	-58.9	0	24.77	0	1.08924	-5.04680706	380	6	1.1	0.9	1.0131	-0.0005	0.0000	0.0000;
	100	1	35.94	22.3	0	0	0	1.03650914	-11.7387493	150	9	1.1	0.9	1.0333	0.0224	0.0000	0.0000;
	101	1	-0	0	0	0.29	0	0.980451818	-13.9812702	150	9	1.1	0.9	1.0421	0.0382	0.0000	0.0000;
	102	1	0	-0	0	3.77	0	1.034098	-10.3983374	220	6	1.1	0.9	1.0244	0.0002	0.0000	0.0000;
	103	1	65.07	40.3	0	5.43	0	1.01305357	-15.1719012	150	9	1.1	0.9	1.0441	0.0167	0.0000	0.0000;
	104	1	51.36	-8.8	0	2.15	0	0.98346816	-16.3901502	220	6	1.1	0.9	1.0709	0.0039	0.0000	0.0000;
	105	1	-0	-0	0	82.55	0	1.05168479	-4.90330594	380	6	1.1	0.9	1.0115	-0.0000	0.0000	0.0000;
	106	1	0	-0	0	31.19	0	1.16044686	-3.35773035	380	23	1.3	0.7	1.0078	-0.0006	0.0000	0.0000;
	107	2	0	0	0	0	0	1.00783987	1.90739975	380	3	1.3	0.7	0.9934	-0.0060	0.0000	0.0000;
	108	1	3.8	1.3	0	0.4	0	1.02455667	-2.81856591	110	18	1.1	0.9	1.0040	0.0008	0.0000	0.0000;
	109	1	137	19.5	0	4.9	0	1.0661795	-6.14290041	154	1	1.1	0.9	1.0216	0.0029	0.0000	0.0000;
	110	1	0	0	0	0	0	1.00260497	-13.4688568	150	9	1.1	0.9	1.0440	0.0269	0.0000	0.0000;
	111	1	61.07	36	0	3.09	0	1.031886	-12.8453152	220	11	1.1	0.9	1.0317	-0.0031	0.0000	0.0000;
	112	1	0	0	0	3.24	0	1.06757604	-19.5291342	220	3	1.1	0.9	1.0351	-0.0648	0.0000	0.0000;
	113	1	-0	-0	0	6.532711	0	1.0652507	-4.16437584	380	5	1.1	0.9	1.0095	0.0011	0.0000	0.0000;
	114	1	55.7	7.9	0	4.21	0	1.03405643	-6.62162145	154	1	1.1	0.9	1.0209	0.0024	0.0000	0.0000;
	115	1	0	-0	0	4.21	0	1.0689598	-12.7648857	220	5	1.1	0.9	1.0257	0.0049	0.0000	0.0000;
	116	1	1.8	0.7	0	0.3	0	1.06595257	-8.2837109	110	19	1.1	0.9	1.0388	0.0080	0.0000	0.0000;
	117	1	40.04	16	0	0.52	0	1.01332849	-4.80699892	110	18	1.1	0.9	1.0142	-0.0006	0.0000	0.0000;
	118	1	-0	0	0	36.562834	0	1.07228783	-1.64993636	380	5	1.1	0.9	1.0012	-0.0004	0.0000	0.0000;
	119	1	0	0	0	0.09	0	1.09001184	-5.61147482	150	9	1.1	0.9	0.9919	-0.0005	0.0000	0.0000;
	120	1	140.6	20.1	0	13.81	0	1.05688572	-10.979176	154	1	1.1	0.9	1.0199	0.0003	0.0000	0.0000;
	121	1	45.15	14.1	0	0.19	0	1.08124176	-6.0583365	110	15	1.1	0.9	1.0128	0.0015	0.0000	0.0000;
	122	1	-0	0	0	5.75	0	0.995565875	-10.6455905	220	3	1.1	0.9	1.0298	0.0077	0.0000	0.0000;
	123	2	0	0	0	0	0	1.02835895	-14.7656837	220	11	1.1	0.9	1.0281	-0.0129	0.0000	0.0000;
	124	2	0	0	0	0	0	1.06990321	2.47074762	220	5	1.1	0.9	0.9963	-0.0000	0.0000	0.0000;
	125	1	3.42	2.68	0	1.46	0	1.04563031	-5.65700993	110	18	1.1	0.9	1.0089	-0.0069	0.0000	0.0000;
	126	1	0	-0	0	2.64	0	1.04793049	-6.76171881	154	1	1.1	0.9	1.0275	0.0028	0.0000	0.0000;
	127	1	-0	-0	0	4.3	0	1.05138448	-3.41816963	220	6	1.1	0.9	1.0035	0.0004	0.0000	0.0000;
	128	1	23.73	12.7	0	0.52	0	1.0512617	-13.0974044	220	5	1.1	0.9	1.0351	0.0070	0.0000	0.0000;
	129	1	121.9	7.4	0	1.34	0	1.02961965	-14.0233954	220	3	1.1	0.9	1.0376	-0.0153	0.0000	0.0000;
	130	1	-0	0	0.135375	47.750675	0	1.09049617	-10.5800573	380	10	1.1	0.9	1.0243	-0.0013	0.0000	0.0000;
	131	1	47.35	16.4	0	4.08	0	1.06098427	-6.91840879	110	22	1.1	0.9	1.0146	-0.0018	0.0000	0.0000;
	132	1	0	-0	0	21.39	0	1.09110723	-7.30084948	380	1	1.1	0.9	1.0125	-0.0027	0.0000	0.0000;
	133	1	38.14	12.5	0	6.28	0	1.06357609	-12.4790098	150	8	1.1	0.9	1.0277	0.0053	0.0000	0.0000;
	134	1	54.2	7.8	0	94.9	0	1.06118992	-3.02543404	400	1	1.1	0.9	1.0026	-0.0018	0.0000	0.0000;
	135	1	130.6	84.9	0	4.22	0	1.02021807	-9.62500261	220	7	1.1	0.9	1.0249	0.0044	0.0000	0.0000;
	136	1	7.91	2.6	0	0.74	0	1.01520543	-9.15622795	110	12	1.1	0.9	1.0409	0.0129	0.0000	0.0000;
	137	1	42.1	74.61	0	37.58	0	1.02418654	-3.152601	150	1	1.1	0.9	1.0169	0.0045	0.0000	0.0000;
	138	1	-75.38	7.8	0	29.9	0	1.09517687	-7.93815158	380	10	1.1	0.9	1.0142	-0.0050	0.0000	0.0000;
	139	1	-0	-0	0	36.92	0	1.04226239	-7.44329932	380	8	1.1	0.9	1.0183	-0.0080	0.0000	0.0000;
	140	1	0	0	0	4.14	0	1.05410847	-11.1126961	220	8	1.1	0.9	1.0276	0.0015	0.0000	0.0000;
	141	2	0	0	0	0	0	1.08855894	-0.179089268	220	13	1.1	0.9	1.0000	-0.0000	0.0000	0.0000;
	142	2	0	0	0	0	0	1.03357943	-5.80090882	220	6	1.1	0.9	1.0000	-0.0000	0.0000	0.0000;
	143	1	0	0	0	0	0	1.05445151	-15.5046207	150	8	1.1	0.9	1.0378	0.0055	0.0000	0.0000;
	144	1	0	0	0	98.53	0	1.03271227	-1.59862988	380	14	1.1	0.9	1.0022	-0.0119	0.0000	0.0000;
	145	1	38.34	5.6	0	7.64	0	1.09320067	-4.34390758	220	5	1.1	0.9	1.0024	0.0001	0.0000	0.0000;
	146	1	269.6	65.7	0	0	0	1.10998622	-7.19931711	120	20	1.3	0.7	1.0167	-0.0045	0.0000	0.0000;
	147	2	0	0	0	0	0	1.07407373	-3.16003912	220	7	1.1	0.9	0.9990	-0.0008	0.0000	0.0000;
	148	1	32.34	12	0	6.1	0	1.06782609	-4.50421189	220	5	1.1	0.9	1.0072	0.0012	0.0000	0.0000;
	149	1	100.1	45.1	0	1.11	0	1.04217575	-6.42550483	380	6	1.1	0.9	1.0146	0.0011	0.0000	0.0000;
	150	2	0	0	0	0	0	1.08108986	-3.32222923	220	5	1.1	0.9	1.0000	-0.0000	0.0000	0.0000;
	151	2	0	0	0	0	0	1.05864754	-3.35140696	154	1	1.1	0.9	1.0003	0.0000	0.0000	0.0000;
	152	1	7	1	0	4.69	0	1.07081653	-4.83999518	154	1	1.1	0.9	1.0045	-0.0345	0.0000	0.0000;
	153	1	-0	0	0	0.56	0	1.02046458	-7.19868203	150	7	1.1	0.9	1.0137	-0.0207	0.0000	0.0000;
	154	1	0	0	0	1.29	0	1.03374177	-9.28957947	110	12	1.1	0.9	1.0363	0.0058	0.0000	0.0000;
	155	1	-0	-0	0	1.7	0	1.03398256	-7.51693772	110	21	1.1	0.9	1.0166	0.0062	0.0000	0.0000;
	156	1	40.34	25	0	1.14	0	0.969108832	-14.167918	150	9	1.1	0.9	1.0464	0.0418	0.0000	0.0000;
	157	1	9.21	3.3	0	1.2	0	1.07147151	-6.71503669	110	19	1.1	0.9	1.0220	0.0073	0.0000	0.0000;
	158	1	166	60.3	0	0.57	0	1.00630594	-9.53380372	220	3	1.1	0.9	1.0199	0.0035	0.0000	0.0000;
	159	1	0	-0	0	0.1	0	1.03450709	-11.314663	150	9	1.1	0.9	1.0380	0.0241	0.0000	0.0000;
	160	1	79.4	11.3	0	4.92	0	1.06946661	-4.34359089	154	1	1.1	0.9	1.0058	-0.0014	0.0000	0.0000;
	161	1	-0	-0	0	0.16	0	1.08781309	-9.81839845	150	9	1.1	0.9	1.0208	0.0117	0.0000	0.0000;
	162	1	0	0	0	66.65	0	1.09747537	-0.504528823	380	6	1.1	0.9	1.0019	-0.0071	0.0000	0.0000;
	163	1	147.76	32.73	0	8.34	0	1.06757921	-8.79362824	220	5	1.1	0.9	1.0188	0.0045	0.0000	0.0000;
	164	1	0	-0	0	5.17	0	1.05539908	-20.1561173	150	8	1.1	0.9	1.0621	0.0114	0.0000	0.0000;
	165	1	26.8	-3.7	0	51.261678	0	1.08763621	-4.1823666	380	9	1.1	0.9	1.0124	0.0035	0.0000	0.0000;
	166	2	0	0	0	0	0	1.03222985	-5.74261829	220	3	1.1	0.9	1.0032	0.0000	0.0000	0.0000;
	167	1	257.5	131.1	0	1.08	0	1.02562737	-9.90349452	220	3	1.1	0.9	1.0158	0.0004	0.0000	0.0000;
	168	1	16.7	2.4	0	6.09	0	1.06300417	-4.92811544	154	1	1.1	0.9	1.0036	-0.0011	0.0000	0.0000;
	169	1	0	0	0	1.91	0	1.04686347	-11.2451943	150	9	1.1	0.9	1.0259	0.0181	0.0000	0.0000;
	170	1	-0	-0	0	2.35	0	1.01152765	2.34946634	220	1	1.1	0.9	0.9869	-0.0002	0.0000	0.0000;
	171	1	100.8	13.2	0	5.24	0	1.06199253	-7.5356742	220	5	1.1	0.9	1.0065	0.0028	0.0000	0.0000;
	172	1	111.7	10.96	0	4.22	0	1.06248675	-5.91885785	220	4	1.1	0.9	1.0056	0.0002	0.0000	0.0000;
	173	1	90.38	-5.05	0	8.49	0	1.03871431	-1.97081951	220	13	1.1	0.9	1.0080	0.0007	0.0000	0.0000;
	174	1	370.5	-17	0	9.91	0	1.09089051	-16.3475396	220	5	1.1	0.9	1.0450	0.0016	0.0000	0.0000;
	175	1	9.91	3.2	0	0.67	0	1.02305308	-10.8921486	110	12	1.1	0.9	1.0544	0.0074	0.0000	0.0000;
	176	1	-0.69	-5.46	0	5.07	0	1.05429094	-10.1933873	150	9	1.1	0.9	1.0246	0.0165	0.0000	0.0000;
	177	1	94.9	36.2	0	16.46	0	0.998212031	-9.79145005	220	10	1.1	0.9	1.0220	0.0016	0.0000	0.0000;
	178	1	81.09	48	0	0.03	0	1.02551729	-11.3954084	150	9	1.1	0.9	1.0236	0.0149	0.0000	0.0000;
	179	2	0	0	0	0	0	1.09230381	-5.39636475	380	4	1.1	0.9	1.0060	-0.0004	0.0000	0.0000;
	180	1	0	0	0	0.54	0	1.04056008	-7.45711889	110	21	1.1	0.9	1.0108	0.0042	0.0000	0.0000;
	181	1	54.96	16.9	0	3.37	0	1.0585584	-7.47028452	110	22	1.1	0.9	1.0143	0.0006	0.0000	0.0000;
	182	1	19.32	26	0	0.69	0	1.0153079	-3.65868867	220	3	1.1	0.9	1.0067	-0.0055	0.0000	0.0000;
	183	1	0	0	0	1.83	0	1.04316642	-10.2500257	150	9	1.1	0.9	1.0112	0.0088	0.0000	0.0000;
	184	1	-0	-0	0	2.42	0	1.06708318	-10.685848	220	5	1.1	0.9	1.0216	0.0034	0.0000	0.0000;
	185	1	20.9	3	0	4.11	0	1.0723953	-4.24621895	154	1	1.1	0.9	1.0119	0.0009	0.0000	0.0000;
	186	1	19.92	6.6	0	0.56	0	1.01951798	-9.59522157	110	21	1.1	0.9	1.0476	0.0151	0.0000	0.0000;
	187	1	57.16	2	0	1.48	0	1.01534238	-10.7617568	110	22	1.1	0.9	1.0576	0.0100	0.0000	0.0000;
	188	1	36.84	13.9	0	3.3	0	1.05610329	-9.82392742	220	5	1.1	0.9	1.0218	0.0050	0.0000	0.0000;
	189	1	-15.04	-5.12	0	0.43	0	1.02364009	-7.02502539	110	18	1.1	0.9	1.0102	-0.0015	0.0000	0.0000;
	190	2	0	0	0	0	0	1.1	-4.00129305	110	19	1.1	0.9	1.0043	0.0000	3.7506	0.0000;
	191	1	0	-0	0	14.19	0	1.02625477	-6.62705434	220	6	1.1	0.9	1.0134	-0.0009	0.0000	0.0000;
	192	2	0	0	0	0	0	1.03095196	1.55962437	380	3	1.1	0.9	0.9929	-0.0000	0.0000	0.0000;
	193	1	119.9	3.7	0	3.33	0	1.00667778	-4.16864737	220	3	1.1	0.9	1.0070	-0.0135	0.0000	0.0000;
	194	2	0	0	0	0	0	1.08303651	-3.79380859	150	8	1.1	0.9	1.0000	0.0000	0.0000	0.0000;
	195	1	73.14	21.55	0	8.52	0	1.08726561	-3.07924219	220	5	1.1	0.9	1.0014	0.0001	0.0000	0.0000;
	196	1	0	-0	0	12.48	0	1.09931862	-20.5831732	220	5	1.1	0.9	1.0258	-0.0916	0.0000	0.0000;
	197	2	0	0	0	0	0	1.0003959	0.702448381	380	3	1.1	0.9	0.9989	-0.0013	0.0000	0.0000;
	198	1	39.74	11.8	0	1.44	0	1.04659444	-13.5138712	220	5	1.1	0.9	1.0381	0.0084	0.0000	0.0000;
	199	1	86.8	28.4	0	1.34	0	1.05492152	-13.6629832	150	8	1.1	0.9	1.0287	0.0067	0.0000	0.0000;
	200	1	22.42	2.1	0	0.19	0	1.03467706	-2.19518629	150	1	1.1	0.9	1.0051	0.0007	0.0000	0.0000;
...
];

%% generator data
%	bus	Pg	Qg	Qmax	Qmin	Vg	mBase	status	Pmax	Pmin	Pc1	Pc2	Qc1min	Qc1max	Qc2min	Qc2max	ramp_agc	ramp_10	ramp_30	ramp_q	apf	mu_Pmax	mu_Pmin	mu_Qmax	mu_Qmin
mpc.gen = [
	2	99.9999994	-20.4499998	42.19	-20.45	1.05831783	100	1	100	-108.53	0	0	0	0	0	0	0	0	0	0	0	0.0012	0.0000	0.0000	0.0030;
	6	1200	461.265257	524.53	-211.57	1.07159445	100	1	1200	400	0	0	0	0	0	0	0	0	0	0	0	0.0096	0.0000	0.0000	0.0000;
	8	209.950472	29.3873663	251.73	-246.25	1.06317845	100	1	524.68	0	0	0	0	0	0	0	0	0	0	0	0	0.0000	0.0000	0.0000	0.0000;
	18	500	212.969908	212.97	-93.48	1.03049538	100	1	500	166.67	0	0	0	0	0	0	0	0	0	0	0	0.0134	0.0000	0.0000	0.0000;
	25	400	157.852811	179.43	-66.21	1.03249675	100	1	400	0	0	0	0	0	0	0	0	0	0	0	0	0.0036	0.0000	0.0000	0.0000;
	32	16.1999999	-4.55999963	5.91	-4.56	1.03498576	100	1	16.2	0	0	0	0	0	0	0	0	0	0	0	0	0.0125	0.0000	0.0000	0.0018;
	33	7.51640652e-07	2.26999764	2.27	-1.08	1.05645127	100	1	5.38	0	0	0	0	0	0	0	0	0	0	0	0	0.0000	0.0009	0.0003	0.0000;
	39	8.29079349	2.02659012	17.76	-7.14	1.02204113	100	1	40	0	0	0	0	0	0	0	0	0	0	0	0	0.0000	0.0000	0.0000	0.0000;
	49	480	-27.3612888	218.52	-75.97	1.02594069	100	1	480	0	0	0	0	0	0	0	0	0	0	0	0	0.0082	0.0000	0.0000	0.0000;
	51	99.9999998	5.47999153	5.48	-4.19	1.06879081	100	1	100	-192.67	0	0	0	0	0	0	0	0	0	0	0	0.0029	0.0000	0.0001	0.0000;
	80	99.9999999	36.4235195	139.94	-43.78	1.0900437	100	1	100	28.8	0	0	0	0	0	0	0	0	0	0	0	0.0046	0.0000	0.0000	0.0000;
	107	200	-113.79	253.85	-113.79	1.00783987	100	1	600	200	0	0	0	0	0	0	0	0	0	0	0	0.0000	0.0066	0.0000	0.0060;
	123	40	-6.05999995	18.84	-6.06	1.02835895	100	1	40	0	0	0	0	0	0	0	0	0	0	0	0	0.0281	0.0000	0.0000	0.0129;
	124	333.33	-152.078055	440.32	-172.59	1.06990321	100	1	1000	333.33	0	0	0	0	0	0	0	0	0	0	0	0.0000	0.0037	0.0000	0.0000;
	141	-75.7932976	-6.32947066	18.59	-6.33	1.08855894	100	1	100	-97.6	0	0	0	0	0	0	0	0	0	0	0	0.0000	0.0000	0.0000	0.0000;
	142	0.0330835059	-2.14286821e-06	78.15	-32.4	1.03357943	100	1	180	0	0	0	0	0	0	0	0	0	0	0	0	0.0000	0.0000	0.0000	0.0000;
	147	-21.3299993	-29.4999991	70.12	-29.5	1.07407373	100	1	100	-21.33	0	0	0	0	0	0	0	0	0	0	0	0.0000	0.0010	0.0000	0.0008;
	150	0.134862834	-5.07079981	77.09	-22.54	1.08108986	100	1	160	0	0	0	0	0	0	0	0	0	0	0	0	0.0000	0.0000	0.0000	0.0000;
	151	99.999998	-6.55635659	37.97	-58.18	1.05864754	100	1	100	-147.13	0	0	0	0	0	0	0	0	0	0	0	0.0003	0.0000	0.0000	0.0000;
	166	300	101.968684	127.67	-56.53	1.03222985	100	1	300	0	0	0	0	0	0	0	0	0	0	0	0	0.0032	0.0000	0.0000	0.0000;
	179	99.9999999	-51.7199984	52.64	-51.72	1.09230381	100	1	100	-238.93	0	0	0	0	0	0	0	0	0	0	0	0.0060	0.0000	0.0000	0.0004;
	190	120	40.1089373	54.24	-20.63	1.1	100	1	120	0	0	0	0	0	0	0	0	0	0	0	0	0.0043	0.0000	0.0000	0.0000;
	192	9.37308077e-08	-21.0914721	91.61	-30.98	1.03095196	100	1	200	0	0	0	0	0	0	0	0	0	0	0	0	0.0000	0.0071	0.0000	0.0000;
	194	292.609856	61.4855431	130.19	-53.53	1.08303651	100	1	300	100	0	0	0	0	0	0	0	0	0	0	0	0.0000	0.0000	0.0000	0.0000;
	197	6.29566981e-07	-59.5399995	123.89	-59.54	1.0003959	100	1	300	0	0	0	0	0	0	0	0	0	0	0	0	0.0000	0.0011	0.0000	0.0013;
	201	5.36999992	-1.06999876	2.27	-1.07	1.08073784	100	1	5.37	0	0	0	0	0	0	0	0	0	0	0	0	0.0079	0.0000	0.0000	0.0005;
	209	39.9999998	13.1964653	18.7	-6.17	1.0537103	100	1	40	0	0	0	0	0	0	0	0	0	0	0	0	0.0031	0.0000	0.0000	0.0000;
	214	-189.521717	-13.3129005	192	-52.89	1.05802246	100	1	100	-233.6	0	0	0	0	0	0	0	0	0	0	0	0.0000	0.0000	0.0000	0.0000;
	219	1869.1626	-207.682185	937.43	-288.16	1.02945607	100	1	2000	666.67	0	0	0	0	0	0	0	0	0	0	0	0.0000	0.0000	0.0000	0.0000;
	220	703.901902	-146.95	402.92	-146.95	1.09177498	100	1	900	300	0	0	0	0	0	0	0	0	0	0	0	0.0000	0.0000	0.0000	0.0067;
	221	133.330002	-65.2999995	183.92	-65.3	1.04083141	100	1	400	133.33	0	0	0	0	0	0	0	0	0	0	0	0.0000	0.0004	0.0000	0.0015;
	222	-131.042787	12.5099984	12.51	-5.62	1.01824297	100	1	100	-196.4	0	0	0	0	0	0	0	0	0	0	0	0.0000	0.0000	0.0004	0.0000;
	239	99.9999998	35.3809913	38.52	-11.24	1.06888198	100	1	100	-9.4	0	0	0	0	0	0	0	0	0	0	0	0.0030	0.0000	0.0000	0.0000;
	246	266.670004	-11.8789737	378.08	-112.59	1.07123066	100	1	800	266.67	0	0	0	0	0	0	0	0	0	0	0	0.0000	0.0002	0.0000	0.0000;
	248	-180.406656	37.469998	37.47	-12.35	1.06039213	100	1	100	-229.33	0	0	0	0	0	0	0	0	0	0	0	0.0000	0.0000	0.0003	0.0000;
	255	500	-49.4421221	220.66	-85.89	1.07375626	100	1	500	166.67	0	0	0	0	0	0	0	0	0	0	0	0.0028	0.0000	0.0000	0.0000;
	262	99.9999966	31.2223231	38.1	-11.72	1.05571737	100	1	100	-153.87	0	0	0	0	0	0	0	0	0	0	0	0.0002	0.0000	0.0000	0.0000;
	263	99.9999999	-6.94999992	5.05	-6.95	1.07651832	100	1	100	-45.87	0	0	0	0	0	0	0	0	0	0	0	0.0106	0.0000	0.0000	0.0088;
	278	20.1243684	-12.0899995	37.7	-12.09	1.01287865	100	1	100	-85.47	0	0	0	0	0	0	0	0	0	0	0	0.0000	0.0000	0.0000	0.0014;
	282	666.670001	-286.218598	924.64	-300.35	1.08536737	100	1	2000	666.67	0	0	0	0	0	0	0	0	0	0	0	0.0000	0.0004	0.0000	0.0000;
	289	4.33940131e-07	-10.8099999	26.02	-10.81	1.02613247	100	1	60	0	0	0	0	0	0	0	0	0	0	0	0	0.0000	0.0015	0.0000	0.0110;
	294	375.047102	3.56176173	45.1	-21.32	1.0708656	100	1	480	160	0	0	0	0	0	0	0	0	0	0	0	0.0000	0.0000	0.0000	0.0000;
	299	1539.60824	36.7475663	721.25	-258.71	1.1	100	1	1600	533.33	0	0	0	0	0	0	0	0	0	0	0	0.0000	0.0000	0.0000	0.0000;
	309	100	42.6199999	42.62	-18.72	0.996449853	100	1	100	0	0	0	0	0	0	0	0	0	0	0	0	0.0230	0.0000	0.0072	0.0000;
	310	570.417831	205.520017	99999	-99999	1.12836784	100	1	700	200	0	0	0	0	0	0	0	0	0	0	0	0.0000	0.0000	0.0000	0.0000;
	313	7.23169205	-2.6949267	4.83	-7.17	1.07891658	100	1	10.08	0	0	0	0	0	0	0	0	0	0	0	0	0.0000	0.0000	0.0000	0.0000;
	320	1000.95031	-277.925103	320.04	-843.96	1.04629184	100	1	1812	604	0	0	0	0	0	0	0	0	0	0	0	0.0000	0.0000	0.0000	0.0000;
	324	7.78387576e-08	-27.2899996	95.32	-27.29	1.02683779	100	1	200	0	0	0	0	0	0	0	0	0	0	0	0	0.0000	0.0085	0.0000	0.0017;
	325	24.34093	1.92999963	1.93	-1.01	1.0767904	100	1	100	-28.53	0	0	0	0	0	0	0	0	0	0	0	0.0000	0.0000	0.0018	0.0000;
	328	-72.177319	6.83429501	188.91	-56.14	1.02824531	100	1	100	-103.87	0	0	0	0	0	0	0	0	0	0	0	0.0000	0.0000	0.0000	0.0000;
	338	4.01355701	-0.100725602	55.54	-19.16	1.09994873	100	1	120	0	0	0	0	0	0	0	0	0	0	0	0	0.0000	0.0000	0.0000	0.0000;
	347	53.4199998	7.00292431	33.33	-42.67	1.09098042	100	1	53.42	0	0	0	0	0	0	0	0	0	0	0	0	0.0038	0.0000	0.0000	0.0000;
	348	10.896149	-0.445591856	110.57	-36.9	1.06152853	100	1	240	0	0	0	0	0	0	0	0	0	0	0	0	0.0000	0.0000	0.0000	0.0000;
	352	835.172056	11.0006687	926.35	-297.68	1.02109159	100	1	2000	666.67	0	0	0	0	0	0	0	0	0	0	0	0.0000	0.0000	0.0000	0.0000;
	361	133.33	2.77395356	186.39	-58.5	1.0827153	100	1	400	133.33	0	0	0	0	0	0	0	0	0	0	0	0.0000	0.0129	0.0000	0.0000;
	366	196	-82.2645032	61.97	-120.27	1.04176502	100	1	196	65.33	0	0	0	0	0	0	0	0	0	0	0	0.0023	0.0000	0.0000	0.0000;
	372	-73.1999999	-73.1396466	282.95	-84.3	1.00481845	100	1	100	-73.2	0	0	0	0	0	0	0	0	0	0	0	0.0000	0.0051	0.0000	0.0000;
	382	80	-11.4399997	38.4	-11.44	1.04984385	100	1	80	0	0	0	0	0	0	0	0	0	0	0	0	0.0190	0.0000	0.0000	0.0022;
	389	29.4141076	0.147230341	56.73	-17.84	1.03102711	100	1	120	0	0	0	0	0	0	0	0	0	0	0	0	0.0000	0.0000	0.0000	0.0000;
	394	933.33	-490.169999	1224.26	-490.17	0.992486082	100	1	2800	933.33	0	0	0	0	0	0	0	0	0	0	0	0.0000	0.0141	0.0000	0.0010;
	406	61.2299999	22.2199999	22.22	-17.35	1.0347246	100	1	61.23	0	0	0	0	0	0	0	0	0	0	0	0	0.0104	0.0000	0.0057	0.0000;
	409	60.5311492	-29.6699998	24.32	-29.67	1.1	100	1	100	-82.67	0	0	0	0	0	0	0	0	0	0	0	0.0000	0.0000	0.0000	0.0035;
	411	23.3003338	5.10616807	17.66	-7.27	1.06385497	100	1	40	0	0	0	0	0	0	0	0	0	0	0	0	0.0000	0.0000	0.0000	0.0000;
	413	36.1720803	1.88722483	124.12	-49.84	1.07982317	100	1	280	0	0	0	0	0	0	0	0	0	0	0	0	0.0000	0.0000	0.0000	0.0000;
	423	94.5019507	-2.59999654	5.22	-2.6	1.06779892	100	1	100	-25.6	0	0	0	0	0	0	0	0	0	0	0	0.0000	0.0000	0.0000	0.0002;
	424	233.33	-125.479994	304.38	-125.48	1.04191119	100	1	700	233.33	0	0	0	0	0	0	0	0	0	0	0	0.0000	0.0032	0.0000	0.0001;
	433	500	-89.219999	217.18	-89.22	1.02706848	100	1	500	166.67	0	0	0	0	0	0	0	0	0	0	0	0.0143	0.0000	0.0000	0.0007;
	434	44.8109574	-3.24999976	2.75	-3.25	1.07337016	100	1	100	-3.73	0	0	0	0	0	0	0	0	0	0	0	0.0000	0.0000	0.0000	0.0028;
	438	4.91276364e-08	-11.4333361	45.1	-16.18	1.00411761	100	1	100	0	0	0	0	0	0	0	0	0	0	0	0	0.0000	0.0135	0.0000	0.0000;
	439	6.79288034e-08	-21.431698	175.16	-69.21	0.969869566	100	1	400	0	0	0	0	0	0	0	0	0	0	0	0	0.0000	0.0098	0.0000	0.0000;
	440	0.00169127839	0.036428942	55.73	-19.01	1.03859183	100	1	120	0	0	0	0	0	0	0	0	0	0	0	0	0.0000	0.0000	0.0000	0.0000;
	442	84.7731142	1.94999813	1.95	-0.93	1.06196057	100	1	100	-53.8	0	0	0	0	0	0	0	0	0	0	0	0.0000	0.0000	0.0004	0.0000;
	447	5.02887989	1.8127732	16.84	-8.04	1.02182134	100	1	40	0	0	0	0	0	0	0	0	0	0	0	0	0.0000	0.0000	0.0000	0.0000;
	452	99.9999999	37.8599994	37.86	-11.94	1.0557561	100	1	100	-75.73	0	0	0	0	0	0	0	0	0	0	0	0.0081	0.0000	0.0012	0.0000;
	453	140.006121	-27.7494623	257.23	-74.4	1.06061562	100	1	540	0	0	0	0	0	0	0	0	0	0	0	0	0.0000	0.0000	0.0000	0.0000;
	456	99.9999999	-39.8099992	44.8	-39.81	1.02256204	100	1	100	-37.44	0	0	0	0	0	0	0	0	0	0	0	0.0105	0.0000	0.0000	0.0008;
	484	8.42019145e-08	6.24458116	132.41	-50.85	0.963304742	100	1	300	0	0	0	0	0	0	0	0	0	0	0	0	0.0000	0.0079	0.0000	0.0000;
	489	99.9999998	1.82701734	6.28	-4.82	1.06319535	100	1	100	-143.2	0	0	0	0	0	0	0	0	0	0	0	0.0033	0.0000	0.0000	0.0000;
	491	200	-28.0999999	94.56	-28.1	1.051353	100	1	200	0	0	0	0	0	0	0	0	0	0	0	0	0.0072	0.0000	0.0000	0.0072;
	505	48.8179449	0.32318893	37.34	-58.33	1.06393436	100	1	116.03	0	0	0	0	0	0	0	0	0	0	0	0	0.0000	0.0000	0.0000	0.0000;
	511	6.59977015e-08	15.0512633	94.38	-28.04	1.00446485	100	1	200	0	0	0	0	0	0	0	0	0	0	0	0	0.0000	0.0101	0.0000	0.0000;
	515	700	-27.2399992	72.5	-27.24	1.05638815	100	1	700	200	0	0	0	0	0	0	0	0	0	0	0	0.0036	0.0000	0.0000	0.0009;
	516	600	170.575968	261.79	-106.67	1.09248449	100	1	600	200	0	0	0	0	0	0	0	0	0	0	0	0.0399	0.0000	0.0000	0.0000;
	518	77.8243615	14.0051174	85.63	-37.21	1.0260315	100	1	100	-547.07	0	0	0	0	0	0	0	0	0	0	0	0.0000	0.0000	0.0000	0.0000;
	524	50.8151644	30.1499994	30.15	-43.07	1.0422984	100	1	72.45	0	0	0	0	0	0	0	0	0	0	0	0	0.0000	0.0000	0.0011	0.0000;
	541	124.19	-27.1899999	7.81	-27.19	1.07853838	100	1	124.19	0	0	0	0	0	0	0	0	0	0	0	0	0.0130	0.0000	0.0000	0.0092;
	564	100	-19.35	18.47	-19.35	1.0973379	100	1	100	-68.89	0	0	0	0	0	0	0	0	0	0	0	0.0764	0.0000	0.0000	0.0393;
	578	-49.6642837	22.5138341	25.88	-11.01	1.03990054	100	1	100	-147.07	0	0	0	0	0	0	0	0	0	0	0	0.0000	0.0000	0.0000	0.0000;
	583	99.9999999	17.8799992	17.88	-7.03	1.0599043	100	1	100	-360	0	0	0	0	0	0	0	0	0	0	0	0.0046	0.0000	0.0008	0.0000;
	587	133.33	14.2340397	185.56	-59.39	1.06341289	100	1	400	133.33	0	0	0	0	0	0	0	0	0	0	0	0.0000	0.0042	0.0000	0.0000;
	590	67.1300001	98.037307	380.31	-110.08	1.0267148	100	1	300	67.13	0	0	0	0	0	0	0	0	0	0	0	0.0000	0.0096	0.0000	0.0000;
	615	9.10026383e-08	-0.986488975	17.09	-7.79	1.09751031	100	1	40	0	0	0	0	0	0	0	0	0	0	0	0	0.0000	0.0073	0.0000	0.0000;
	616	479.999999	72.7814968	217.9	-81.16	1.1	100	1	480	160	0	0	0	0	0	0	0	0	0	0	0	0.0012	0.0000	0.0000	0.0000;
	618	800	161.195363	351.18	-139.11	1.09399438	100	1	800	266.67	0	0	0	0	0	0	0	0	0	0	0	0.0057	0.0000	0.0000	0.0000;
	628	8.84058831	64.9475539	78.79	-31.69	0.99929374	100	1	180	0	0	0	0	0	0	0	0	0	0	0	0	0.0000	0.0000	0.0000	0.0000;
	636	91.1843143	17.7625629	52.99	-21.87	1.08197019	100	1	120	0	0	0	0	0	0	0	0	0	0	0	0	0.0000	0.0000	0.0000	0.0000;
	637	1.00879316e-06	7.47689316	11.2	-8.44	1.05610811	100	1	22.32	0	0	0	0	0	0	0	0	0	0	0	0	0.0000	0.0007	0.0000	0.0000;
	639	100	118.000483	135.52	-38.9	1.09474678	100	1	100	-61.6	0	0	0	0	0	0	0	0	0	0	0	0.0569	0.0000	0.0000	0.0000;
	642	276.09	0.940266645	90.13	-93.03	1.09453813	100	1	276.09	0	0	0	0	0	0	0	0	0	0	0	0	0.0071	0.0000	0.0000	0.0000;
	648	7.28316012e-08	35.8608437	37.95	-11.87	1.02603283	100	1	80	0	0	0	0	0	0	0	0	0	0	0	0	0.0000	0.0091	0.0000	0.0000;
	672	205.81	37.1235543	71.32	-62.92	1.08401455	100	1	205.81	0	0	0	0	0	0	0	0	0	0	0	0	0.0164	0.0000	0.0000	0.0000;
	682	44.2933954	-11.0599972	38.77	-11.06	1.08760399	100	1	80	0	0	0	0	0	0	0	0	0	0	0	0	0.0000	0.0000	0.0000	0.0002;
	686	-12.4823618	-8.94596065	34.75	-34.26	1.06965455	100	1	100	-28.86	0	0	0	0	0	0	0	0	0	0	0	0.0000	0.0000	0.0000	0.0000;
	692	298.820451	-35.8973032	182.17	-62.79	1.09988634	100	1	400	133.33	0	0	0	0	0	0	0	0	0	0	0	0.0000	0.0000	0.0000	0.0000;
	697	728.382616	44.3099741	357.4	-132.75	1.1	100	1	800	266.67	0	0	0	0	0	0	0	0	0	0	0	0.0000	0.0000	0.0000	0.0000;
	698	100	-22.8795431	129.94	-53.91	0.998338679	100	1	300	100	0	0	0	0	0	0	0	0	0	0	0	0.0000	0.0077	0.0000	0.0000;
	709	65.2999999	-20.8299998	22.23	-20.83	1.09335944	100	1	65.3	0	0	0	0	0	0	0	0	0	0	0	0	0.0050	0.0000	0.0000	0.0027;
	711	18.5300005	-16.7351674	377.01	-113.63	1.06607852	100	1	100	18.53	0	0	0	0	0	0	0	0	0	0	0	0.0000	0.0013	0.0000	0.0000;
	713	17.1192817	6.59977741	53.98	-20.79	1.01907313	100	1	120	0	0	0	0	0	0	0	0	0	0	0	0	0.0000	0.0000	0.0000	0.0000;
	714	319.229063	-35.096946	376.36	-114.08	1.04010872	100	1	800	266.67	0	0	0	0	0	0	0	0	0	0	0	0.0000	0.0000	0.0000	0.0000;
	715	236.445304	-151.198345	66.42	-179.95	1.0396326	100	1	366	122	0	0	0	0	0	0	0	0	0	0	0	0.0000	0.0000	0.0000	0.0000;
	727	266.670001	-99.5996443	379.61	-111.09	1.0721347	100	1	800	266.67	0	0	0	0	0	0	0	0	0	0	0	0.0000	0.0009	0.0000	0.0000;
	728	44.3625241	-3.75493378	35.73	-44.31	1.06323473	100	1	74.28	0	0	0	0	0	0	0	0	0	0	0	0	0.0000	0.0000	0.0000	0.0000;
	735	110.0257	-16.2571862	89.94	-122.06	1.06998282	100	1	178.5	0	0	0	0	0	0	0	0	0	0	0	0	0.0000	0.0000	0.0000	0.0000;
	738	220.918468	103.622028	107.86	-95.15	1.06585899	100	1	311.39	34.6	0	0	0	0	0	0	0	0	0	0	0	0.0000	0.0000	0.0000	0.0000;
	739	396.711378	-93.4499991	212.97	-93.45	1.07458571	100	1	500	166.67	0	0	0	0	0	0	0	0	0	0	0	0.0000	0.0000	0.0000	0.0007;
	749	28.4234337	-14.3874	105.69	-43.84	1.07812351	100	1	240	0	0	0	0	0	0	0	0	0	0	0	0	0.0000	0.0000	0.0000	0.0000;
	751	141.481999	6.81386594	136.94	-47.24	1.06087034	100	1	300	0	0	0	0	0	0	0	0	0	0	0	0	0.0000	0.0000	0.0000	0.0000;
	757	120	51.2999991	51.3	-23.41	1.05327583	100	1	120	0	0	0	0	0	0	0	0	0	0	0	0	0.0132	0.0000	0.0007	0.0000;
	763	0.0233933928	2.28530037e-06	27.88	-8.97	1.03357964	100	1	60	0	0	0	0	0	0	0	0	0	0	0	0	0.0000	0.0000	0.0000	0.0000;
	764	192.661307	-38.583278	174.17	-71.12	1.0999187	100	1	400	133.33	0	0	0	0	0	0	0	0	0	0	0	0.0000	0.0000	0.0000	0.0000;
	765	180	16.9482643	76.76	-33.84	1.08237006	100	1	180	0	0	0	0	0	0	0	0	0	0	0	0	0.0107	0.0000	0.0000	0.0000;
	774	14.1898767	-4.30258536	81.57	-60.74	1.08454091	100	1	141.12	0	0	0	0	0	0	0	0	0	0	0	0	0.0000	0.0000	0.0000	0.0000;
	776	99.9999998	18.1599987	18.16	-6.73	1.09211579	100	1	100	-148.53	0	0	0	0	0	0	0	0	0	0	0	0.0036	0.0000	0.0005	0.0000;
	778	0.00816138754	-0.843064888	12.37	-9.36	1.099904	100	1	33.58	0	0	0	0	0	0	0	0	0	0	0	0	0.0000	0.0000	0.0000	0.0000;
	779	45	-7.57999996	17.34	-7.58	1.0709824	100	1	45	0	0	0	0	0	0	0	0	0	0	0	0	0.0248	0.0000	0.0000	0.0183;
	780	80	19.7167334	37.43	-12.32	1.03963441	100	1	80	0	0	0	0	0	0	0	0	0	0	0	0	0.0164	0.0000	0.0000	0.0000;
	791	623.593316	-141.635634	567.63	-167.48	1.08239279	100	1	1200	400	0	0	0	0	0	0	0	0	0	0	0	0.0000	0.0000	0.0000	0.0000;
	795	79.9999877	8.10428206	36.75	-13.04	1.08792033	100	1	80	0	0	0	0	0	0	0	0	0	0	0	0	0.0001	0.0000	0.0000	0.0000;
	796	80	11.7983245	39	-10.74	1.06087659	100	1	80	0	0	0	0	0	0	0	0	0	0	0	0	0.0169	0.0000	0.0000	0.0000;
	803	50.0448082	1.39449012	74.03	-25.54	1.09886465	100	1	100	-118.93	0	0	0	0	0	0	0	0	0	0	0	0.0000	0.0000	0.0000	0.0000;
	807	1473.25595	43.6556321	864.47	-360.97	1.09934474	100	1	2000	666.67	0	0	0	0	0	0	0	0	0	0	0	0.0000	0.0000	0.0000	0.0000;
	813	602	-61.7147846	309.08	-290.93	1.05218237	100	1	602	200.67	0	0	0	0	0	0	0	0	0	0	0	0.0076	0.0000	0.0000	0.0000;
	823	962.438465	26.009417	926.68	-298.31	1.02358881	100	1	2000	666.67	0	0	0	0	0	0	0	0	0	0	0	0.0000	0.0000	0.0000	0.0000;
	828	58.6999999	-22.43	20.87	-22.43	1.0845529	100	1	58.7	0	0	0	0	0	0	0	0	0	0	0	0	0.0095	0.0000	0.0000	0.0160;
	831	120	-19.1799998	55.59	-19.18	1.01008479	100	1	120	0	0	0	0	0	0	0	0	0	0	0	0	0.0168	0.0000	0.0000	0.0028;
	832	600	174.584178	264.71	-102.83	1.03478039	100	1	600	200	0	0	0	0	0	0	0	0	0	0	0	0.0238	0.0000	0.0000	0.0000;
	837	59.9999999	25.1604279	27.19	-9.66	1.08966995	100	1	60	0	0	0	0	0	0	0	0	0	0	0	0	0.0062	0.0000	0.0000	0.0000;
	844	119.999998	-20.4699809	54.35	-20.47	1.0400586	100	1	120	0	0	0	0	0	0	0	0	0	0	0	0	0.0003	0.0000	0.0000	0.0000;
	848	5.0424689	1.74279607	49.63	-38.12	1.0387593	100	1	100	2.69	0	0	0	0	0	0	0	0	0	0	0	0.0000	0.0000	0.0000	0.0000;
	849	4.37979988e-06	-4.90998496	6.45	-4.91	1.07885445	100	1	17.57	0	0	0	0	0	0	0	0	0	0	0	0	0.0000	0.0002	0.0000	0.0000;
	851	199.999999	96.6399926	96.64	-27.81	1.09432582	100	1	200	0	0	0	0	0	0	0	0	0	0	0	0	0.0007	0.0000	0.0001	0.0000;
	858	480.805007	88.9325208	440.67	-172.15	1.04174665	100	1	1000	333.33	0	0	0	0	0	0	0	0	0	0	0	0.0000	0.0000	0.0000	0.0000;
	861	0.995323847	33.3559666	57.98	-16.68	1.05891182	100	1	120	0	0	0	0	0	0	0	0	0	0	0	0	0.0000	0.0000	0.0000	0.0000;
	875	500	-44.8792687	228.16	-78.19	1.09035691	100	1	500	166.67	0	0	0	0	0	0	0	0	0	0	0	0.0046	0.0000	0.0000	0.0000;
	888	300	7.85084834	138.6	-45.27	1.07288147	100	1	300	100	0	0	0	0	0	0	0	0	0	0	0	0.0071	0.0000	0.0000	0.0000;
	891	2400	577.354062	1097.41	-373.91	1.08442405	100	1	2400	800	0	0	0	0	0	0	0	0	0	0	0	0.0103	0.0000	0.0000	0.0000;
	894	142.409094	111.291453	141.93	-57.74	1.06621631	100	1	320	0	0	0	0	0	0	0	0	0	0	0	0	0.0000	0.0000	0.0000	0.0000;
	896	54.169282	-11.3999838	8.6	-11.4	1.094338	100	1	100	-3.6	0	0	0	0	0	0	0	0	0	0	0	0.0000	0.0000	0.0000	0.0000;
	913	1700	675.199598	772.11	-269.94	1.0598345	100	1	1700	566.67	0	0	0	0	0	0	0	0	0	0	0	0.0031	0.0000	0.0000	0.0000;
	916	6.17308708e-06	-12.4971949	134.45	-49.76	1.04145748	100	1	300	0	0	0	0	0	0	0	0	0	0	0	0	0.0000	0.0001	0.0000	0.0000;
	917	38.971287	13.1452885	18.22	-6.73	1.09354252	100	1	40	0	0	0	0	0	0	0	0	0	0	0	0	0.0000	0.0000	0.0000	0.0000;
	926	420.428107	3.61724903	201.12	-87.96	1.07016316	100	1	472	157.33	0	0	0	0	0	0	0	0	0	0	0	0.0000	0.0000	0.0000	0.0000;
	927	31.3118523	-8.15999999	28.69	-8.16	1.07214734	100	1	60	0	0	0	0	0	0	0	0	0	0	0	0	0.0000	0.0000	0.0000	0.1183;
	930	330.819674	-124.471322	406.66	-144.75	1.07759783	100	1	900	300	0	0	0	0	0	0	0	0	0	0	0	0.0000	0.0000	0.0000	0.0000;
	972	666.67	22.9304078	934.73	-291.52	1.03867095	100	1	2000	666.67	0	0	0	0	0	0	0	0	0	0	0	0.0000	0.0027	0.0000	0.0000;
	974	120	35.6528046	54.36	-20.21	1.04443677	100	1	120	0	0	0	0	0	0	0	0	0	0	0	0	0.0019	0.0000	0.0000	0.0000;
	976	107.83	36.0199956	36.02	-35.35	1.09402748	100	1	107.83	0	0	0	0	0	0	0	0	0	0	0	0	0.0073	0.0000	0.0002	0.0000;
	978	15.1499999	-2.98999979	6.43	-2.99	1.03503645	100	1	15.15	0	0	0	0	0	0	0	0	0	0	0	0	0.0102	0.0000	0.0000	0.0032;
	983	666.67	-277.269999	948.36	-277.27	0.993138661	100	1	2000	666.67	0	0	0	0	0	0	0	0	0	0	0	0.0000	0.0137	0.0000	0.0010;
	984	1314.8782	21.2179575	738.93	-240.84	1.1	100	1	1600	533.33	0	0	0	0	0	0	0	0	0	0	0	0.0000	0.0000	0.0000	0.0000;
	991	39.9999999	14.0688583	16.83	-8.05	1.02026488	100	1	40	0	0	0	0	0	0	0	0	0	0	0	0	0.0062	0.0000	0.0000	0.0000;
	992	59.9999999	8.28889106	25.97	-10.87	1.0460606	100	1	60	0	0	0	0	0	0	0	0	0	0	0	0	0.0061	0.0000	0.0000	0.0000;
	993	-72.5258143	-7.0699952	17.85	-7.07	1.07774819	100	1	100	-182.53	0	0	0	0	0	0	0	0	0	0	0	0.0000	0.0000	0.0000	0.0001;
	1001	120	55.0199962	55.02	-19.81	1.09114407	100	1	120	0	0	0	0	0	0	0	0	0	0	0	0	0.0406	0.0000	0.0002	0.0000;
	1002	200	89.5499862	89.55	-35.15	1.08599845	100	1	200	0	0	0	0	0	0	0	0	0	0	0	0	0.0248	0.0000	0.0000	0.0000;
	1004	100	43.9899999	43.99	-17.4	1.00494392	100	1	100	0	0	0	0	0	0	0	0	0	0	0	0	0.0199	0.0000	0.0049	0.0000;
	1021	99.9999997	1.90423537	58.34	-16.23	1.06487138	100	1	100	-239.07	0	0	0	0	0	0	0	0	0	0	0	0.0022	0.0000	0.0000	0.0000;
	1029	2.96027543e-07	34.8344151	90.64	-31.73	1.00274816	100	1	200	0	0	0	0	0	0	0	0	0	0	0	0	0.0000	0.0022	0.0000	0.0000;
	1030	235.759669	35.6313378	71.66	-27.89	1.02872371	100	1	400	100	0	0	0	0	0	0	0	0	0	0	0	0.0000	0.0000	0.0000	0.0000;
	1036	100	-10.4474429	137.39	-46.45	1.04551581	100	1	300	100	0	0	0	0	0	0	0	0	0	0	0	0.0000	0.0066	0.0000	0.0000;
	1043	300.000013	0.158000498	387.88	-163.4	1.06741052	100	1	900	300	0	0	0	0	0	0	0	0	0	0	0	0.0000	0.0001	0.0000	0.0000;
	1050	252.05	14.1304729	173.5	-71.79	1.08246539	100	1	518.72	252.05	0	0	0	0	0	0	0	0	0	0	0	0.0000	0.0075	0.0000	0.0000;
	1082	400	9.1583778	171.62	-73.5	1.08771357	100	1	400	133.33	0	0	0	0	0	0	0	0	0	0	0	0.0101	0.0000	0.0000	0.0000;
	1083	118.846736	21.5540657	54.91	-19.88	1.08339116	100	1	120	0	0	0	0	0	0	0	0	0	0	0	0	0.0000	0.0000	0.0000	0.0000;
	1088	45.9899995	-3.6598323	8.06	-3.66	1.08177539	100	1	45.99	0	0	0	0	0	0	0	0	0	0	0	0	0.0014	0.0000	0.0000	0.0000;
	1093	1199.99999	152.877076	550.69	-185.15	1.07023026	100	1	1200	400	0	0	0	0	0	0	0	0	0	0	0	0.0001	0.0000	0.0000	0.0000;
	1097	18.3799998	4.40211187	6.17	-6.64	1.09092435	100	1	18.38	0	0	0	0	0	0	0	0	0	0	0	0	0.0031	0.0000	0.0000	0.0000;
	1098	66.6700017	-31.2399999	91.42	-31.24	1.11390677	100	1	200	66.67	0	0	0	0	0	0	0	0	0	0	0	0.0000	0.0004	0.0000	0.0062;
	1100	0.0639158604	3.27025628e-06	36.8	-13.01	1.08897981	100	1	80	0	0	0	0	0	0	0	0	0	0	0	0	0.0000	0.0000	0.0000	0.0000;
	1102	99.9999865	38.0497335	38.05	-11.59	1.07979121	100	1	100	-165.54	0	0	0	0	0	0	0	0	0	0	0	0.0000	0.0000	0.0000	0.0000;
	1103	266.67	48.9709682	376.66	-112.66	1.06345015	100	1	800	266.67	0	0	0	0	0	0	0	0	0	0	0	0.0000	0.0138	0.0000	0.0000;
	1117	288.000004	-301.348772	307.47	-487.11	1.0295439	100	1	864	288	0	0	0	0	0	0	0	0	0	0	0	0.0000	0.0002	0.0000	0.0000;
	1119	191.134271	8.13022388	126.49	-57.33	1.0800107	100	1	300	100	0	0	0	0	0	0	0	0	0	0	0	0.0000	0.0000	0.0000	0.0000;
	1121	129.305049	-23.6657693	158.2	-62.81	1.04668308	100	1	360	0	0	0	0	0	0	0	0	0	0	0	0	0.0000	0.0000	0.0000	0.0000;
	1122	31.4991447	0.0241225034	68	-56.08	1.0517224	100	1	190.28	0	0	0	0	0	0	0	0	0	0	0	0	0.0000	0.0000	0.0000	0.0000;
	1125	81.5221196	-34.7397524	114.57	-34.74	1.03215303	100	1	240	0	0	0	0	0	0	0	0	0	0	0	0	0.0000	0.0000	0.0000	0.0000;
	1131	562.459707	8.35329866	407.66	-143.61	1.07710247	100	1	900	300	0	0	0	0	0	0	0	0	0	0	0	0.0000	0.0000	0.0000	0.0000;
	1138	333.330002	-180.699993	432.44	-180.7	0.996703492	100	1	1000	333.33	0	0	0	0	0	0	0	0	0	0	0	0.0000	0.0004	0.0000	0.0001;
	1139	80.8435916	63.1373555	107.89	-41.5	1.06595273	100	1	240	0	0	0	0	0	0	0	0	0	0	0	0	0.0000	0.0000	0.0000	0.0000;
	1145	283.589424	-113.809481	153.07	-144.24	1.00922897	100	1	452.53	37.71	0	0	0	0	0	0	0	0	0	0	0	0.0000	0.0000	0.0000	0.0000;
	1173	-18.3194196	-0.879996877	1.85	-0.88	1.06416396	100	1	100	-166.27	0	0	0	0	0	0	0	0	0	0	0	0.0000	0.0000	0.0000	0.0002;
	1174	35.6891043	1.11366717	18.61	-6.28	1.02185848	100	1	40	0	0	0	0	0	0	0	0	0	0	0	0	0.0000	0.0000	0.0000	0.0000;
	1175	200.000001	16.3732808	108.35	-39.12	1.07348849	100	1	700	200	0	0	0	0	0	0	0	0	0	0	0	0.0000	0.0007	0.0000	0.0000;
	1176	99.9999999	27.182102	94.13	-28.09	1.04514928	100	1	100	4.46	0	0	0	0	0	0	0	0	0	0	0	0.0053	0.0000	0.0000	0.0000;
	1184	400	-67.55	178.02	-67.55	1.04314985	100	1	400	0	0	0	0	0	0	0	0	0	0	0	0	0.0281	0.0000	0.0000	0.0194;
	1220	180	55.505501	84.07	-26.48	1.03333237	100	1	180	0	0	0	0	0	0	0	0	0	0	0	0	0.0150	0.0000	0.0000	0.0000;
	1225	1.89520043	-3.26241946	118.84	-55.64	1.05054499	100	1	290.43	0	0	0	0	0	0	0	0	0	0	0	0	0.0000	0.0000	0.0000	0.0000;
	1237	1064.64772	91.6289925	906.61	-319.44	1.0709101	100	1	2000	666.67	0	0	0	0	0	0	0	0	0	0	0	0.0000	0.0000	0.0000	0.0000;
	1241	65.6299988	-20.9799989	22.29	-20.98	1.04045585	100	1	65.63	0	0	0	0	0	0	0	0	0	0	0	0	0.0006	0.0000	0.0000	0.0006;
...
];

%% branch data
%	fbus	tbus	r	x	b	rateA	rateB	rateC	ratio	angle	status	angmin	angmax	Pf	Qf	Pt	Qt	mu_Sf	mu_St	mu_angmin	mu_angmax
mpc.branch = [
	5147	3097	0.0006	0.00616	0	823	0	0	0	0	1	-360	360	21.3187	-23.4616	-21.3131	23.5195	0.0000	0.0000	0.0000	0.0000;
	5147	8763	0.0005	0.0074	0	921	0	0	0	0	1	-360	360	-21.3187	42.4960	21.3293	-42.3395	0.0000	0.0000	0.0000	0.0000;
	2169	3124	0.00107	0.00626	0	476	0	0	0	0	1	-360	360	1.3694	-16.5346	-1.3667	16.5502	0.0000	0.0000	0.0000	0.0000;
	2169	3234	0.000841	0.0055	0	476	0	0	0	0	1	-360	360	-1.3694	17.9995	1.3719	-17.9832	0.0000	0.0000	0.0000	0.0000;
	3517	711	0.00143	0.01563	0	1645	0	0	0	0	1	-360	360	197.2612	33.1601	-196.7644	-27.7299	0.0000	0.0000	0.0000	0.0000;
	3517	4533	0.00146	0.01692	0	1711	0	0	0	0	1	-360	360	-197.2612	16.0279	197.7578	-10.2734	0.0000	0.0000	0.0000	0.0000;
	427	5425	7e-05	0.00057	0	1711	0	0	0	0	1	-360	360	-3.6766	73.0789	3.6797	-73.0530	0.0000	0.0000	0.0000	0.0000;
	427	4704	6e-05	0.00056	0	1514	0	0	0	0	1	-360	360	3.6766	-71.6150	-3.6739	71.6394	0.0000	0.0000	0.0000	0.0000;
	5960	7431	0.003349	0.01656	0	0	0	0	0	0	1	-360	360	-33.1667	4.3559	33.2024	-4.1795	0.0000	0.0000	0.0000	0.0000;
	5960	3186	0.003409	0.016211	0	0	0	0	0	0	1	-360	360	33.1667	-1.4347	-33.1310	1.6048	0.0000	0.0000	0.0000	0.0000;
	4481	7431	0.003479	0.01586	0	0	0	0	0	0	1	-360	360	-32.1927	3.9487	32.2275	-3.7899	0.0000	0.0000	0.0000	0.0000;
	4481	3186	0.003099	0.017969	0	0	0	0	0	0	1	-360	360	32.1927	-1.1122	-32.1620	1.2897	0.0000	0.0000	0.0000	0.0000;
	531	9203	0.00127	0.01842	0	823	0	0	0	0	1	-360	360	14.1524	64.8838	-14.1027	-64.1631	0.0000	0.0000	0.0000	0.0000;
	531	835	0.00126	0.01847	0	1547	0	0	0	0	1	-360	360	-14.1524	-11.4533	14.1561	11.5076	0.0000	0.0000	0.0000	0.0000;
	1656	118	0.0013	0.01808	0	1218	0	0	0	0	1	-360	360	-4.4878	14.1262	4.4903	-14.0918	0.0000	0.0000	0.0000	0.0000;
	1656	3449	0.00131	0.01765	0	1744	0	0	0	0	1	-360	360	4.4878	42.1581	-4.4674	-41.8833	0.0000	0.0000	0.0000	0.0000;
	5084	1809	0.00065	0.01311	0	2793	0	0	0	0	1	-360	360	169.6363	501.5620	-167.9868	-468.2926	0.0000	0.0000	0.0000	0.0000;
	5084	6398	0.00067	0.00974	0	2598	0	0	0	0	1	-360	360	-169.6363	44.6124	169.8229	-41.8997	0.0000	0.0000	0.0000	0.0000;
	5205	7833	0.00236	0.01418	0	553	0	0	0	0	1	-360	360	-144.6445	68.7177	145.1676	-65.5748	0.0000	0.0000	0.0000	0.0000;
	5205	7770	0.002169	0.015909	0	514	0	0	0	0	1	-360	360	144.6445	-65.4318	-144.1720	68.8972	0.0000	0.0000	0.0000	0.0000;
	354	1278	0.00027	0.00254	0	1349	0	0	0	0	1	-360	360	-20.9614	72.5921	20.9758	-72.4567	0.0000	0.0000	0.0000	0.0000;
	354	7617	0.00027	0.00259	0	1119	0	0	0	0	1	-360	360	20.9614	-63.3064	-20.9502	63.4139	0.0000	0.0000	0.0000	0.0000;
	2611	1278	0.00033	0.00302	0	1448	0	0	0	0	1	-360	360	148.9745	-28.2729	-148.9034	28.9239	0.0000	0.0000	0.0000	0.0000;
	2611	905	0.00029	0.00312	0	1613	0	0	0	0	1	-360	360	-148.9745	38.3959	149.0389	-37.7036	0.0000	0.0000	0.0000	0.0000;
	1842	6542	0.000289	0.00137	0	533	0	0	0	0	1	-360	360	-110.8951	41.1219	110.9318	-40.9480	0.0000	0.0000	0.0000	0.0000;
	1842	7622	0.000219	0.00263	0	0	0	0	0	0	1	-360	360	110.8951	-13.3269	-110.8703	13.6246	0.0000	0.0000	0.0000	0.0000;
	2134	6542	0.000289	0.001341	0	457	0	0	0	0	1	-360	360	-36.8235	32.3612	36.8298	-32.3319	0.0000	0.0000	0.0000	0.0000;
	2134	8785	0.000229	0.00257	0	0	0	0	0	0	1	-360	360	36.8235	-4.0107	-36.8207	4.0427	0.0000	0.0000	0.0000	0.0000;
	6613	6542	0.000841	0.00689	0	514	0	0	0	0	1	-360	360	24.5627	-3.2675	-24.5580	3.3059	0.0000	0.0000	0.0000	0.0000;
	6613	1651	0.000979	0.00586	0	495	0	0	0	0	1	-360	360	-24.5627	4.4131	24.5683	-4.3800	0.0000	0.0000	0.0000	0.0000;
	5773	6542	0.00014	0.0012	0	0	0	0	0	0	1	-360	360	148.5797	-17.3207	-148.5513	17.5645	0.0000	0.0000	0.0000	0.0000;
	5773	7840	0.000211	0.001539	0	0	0	0	0	0	1	-360	360	-148.5797	17.7173	148.6226	-17.4045	0.0000	0.0000	0.0000	0.0000;
	5214	6542	0.000401	0.004901	0	0	0	0	0	0	1	-360	360	63.8995	-5.2331	-63.8845	5.4160	0.0000	0.0000	0.0000	0.0000;
	5214	7840	0.000219	0.00151	0	533	0	0	0	0	1	-360	360	-63.8995	6.2025	63.9077	-6.1460	0.0000	0.0000	0.0000	0.0000;
	8072	6542	0.000729	0.004539	0	495	0	0	0	0	1	-360	360	-90.4472	-12.9479	90.5026	13.2927	0.0000	0.0000	0.0000	0.0000;
	8072	2759	0.00062	0.00482	0	495	0	0	0	0	1	-360	360	90.4472	13.7833	-90.4000	-13.4162	0.0000	0.0000	0.0000	0.0000;
	2971	6069	0.00052	0.00407	0	1481	0	0	0	0	1	-360	360	209.6796	70.1729	-209.4320	-68.2350	0.0000	0.0000	0.0000	0.0000;
	2971	3445	0.00034	0.00502	0	1843	0	0	0	0	1	-360	360	-209.6796	-58.3137	209.8365	60.6295	0.0000	0.0000	0.0000	0.0000;
	7561	6069	0.00065	0.00698	0	1711	0	0	0	0	1	-360	360	228.0956	79.1120	-227.7287	-75.1724	0.0000	0.0000	0.0000	0.0000;
	7561	8825	0.00059	0.00806	0	1678	0	0	0	0	1	-360	360	-228.0956	-57.9006	228.4120	62.2229	0.0000	0.0000	0.0000	0.0000;
	6748	8864	0.00063	0.00464	0	495	0	0	0	0	1	-360	360	156.7000	-82.4110	-156.5299	83.6638	0.0000	0.0000	0.0000	0.0000;
	6748	5078	0.000599	0.005099	0	533	0	0	0	0	1	-360	360	-156.7000	83.8971	156.8630	-82.5095	0.0000	0.0000	0.0000	0.0000;
	4956	4785	0.00064	0.00307	0	0	0	0	0	0	1	-360	360	-64.2237	-30.1372	64.2523	30.2744	0.0000	0.0000	0.0000	0.0000;
	4956	7667	0.000659	0.003	0	0	0	0	0	0	1	-360	360	64.2237	31.2522	-64.1939	-31.1163	0.0000	0.0000	0.0000	0.0000;
	8619	6775	0.00053	0.00528	0	1086	0	0	0	0	1	-360	360	-50.4327	13.2934	50.4463	-13.1581	0.0000	0.0000	0.0000	0.0000;
	8619	8195	0.00056	0.0053	0	1283	0	0	0	0	1	-360	360	50.4327	0.8291	-50.4193	-0.7021	0.0000	0.0000	0.0000	0.0000;
	3107	4785	0.0018	0.007919	0	0	0	0	0	0	1	-360	360	-38.5227	-45.2551	38.5794	45.5048	0.0000	0.0000	0.0000	0.0000;
	3107	7154	0.001651	0.00862	0	0	0	0	0	0	1	-360	360	38.5227	48.2241	-38.4666	-47.9310	0.0000	0.0000	0.0000	0.0000;
	5437	6775	0.00045	0.00545	0	1382	0	0	0	0	1	-360	360	217.8432	5.8296	-217.6423	-3.3958	0.0000	0.0000	0.0000	0.0000;
	5437	905	0.00052	0.00476	0	1547	0	0	0	0	1	-360	360	-217.8432	6.4956	218.0755	-4.3696	0.0000	0.0000	0.0000	0.0000;
	2282	6876	0.01286	0.037421	0	0	0	0	0	0	1	-360	360	8.3547	3.9758	-8.3447	-3.9467	0.0000	0.0000	0.0000	0.0000;
	2282	5654	0.032397	0.123	0	0	0	0	0	0	1	-360	360	-8.3547	-3.1521	8.3782	3.2414	0.0000	0.0000	0.0000	0.0000;
	474	6876	0.032851	0.069727	0	0	0	0	0	0	1	-360	360	-1.9848	2.8417	1.9884	-2.8341	0.0000	0.0000	0.0000	0.0000;
	474	8045	0.059942	0.112802	0	0	0	0	0	0	1	-360	360	1.9848	-1.7787	-1.9809	1.7860	0.0000	0.0000	0.0000	0.0000;
	7917	7472	0.00011	0.00109	0	1086	0	0	0	0	1	-360	360	-471.4284	-32.6841	471.6603	34.9825	0.0000	0.0000	0.0000	0.0000;
	7917	8899	0.00011	0.00107	0	1185	0	0	0	0	1	-360	360	471.4284	35.5860	-471.1963	-33.3279	0.0000	0.0000	0.0000	0.0000;
	6225	7681	0.000461	0.00395	0	629	0	0	0	0	1	-360	360	89.6859	89.3422	-89.6172	-88.7539	0.0000	0.0000	0.0000	0.0000;
	6225	1508	0.000599	0.003789	0	591	0	0	0	0	1	-360	360	-89.6859	-88.4813	89.7742	89.0402	0.0000	0.0000	0.0000	0.0000;
	7118	6568	0.00173	0.01542	0	987	0	0	0	0	1	-360	360	26.4276	63.2428	-26.3619	-62.6575	0.0000	0.0000	0.0000	0.0000;
	7118	4346	0.00166	0.02083	0	1119	0	0	0	0	1	-360	360	-26.4276	-13.9446	26.4395	14.0948	0.0000	0.0000	0.0000	0.0000;
	3469	8850	0.006314	0.018488	0	0	0	0	0	0	1	-360	360	8.4542	2.7223	-8.4497	-2.7092	0.0000	0.0000	0.0000	0.0000;
	3469	1997	0.015727	0.037669	0	0	0	0	0	0	1	-360	360	-8.4542	-2.4230	8.4652	2.4493	0.0000	0.0000	0.0000	0.0000;
	7556	7058	0.00374	0.02095	0	800	0	0	0	0	1	-360	360	7.5054	11.7354	-7.4991	-11.7003	0.0000	0.0000	0.0000	0.0000;
	7556	4324	0.00511	0.019461	0	800	0	0	0	0	1	-360	360	-7.5054	-8.1532	7.5108	8.1739	0.0000	0.0000	0.0000	0.0000;
	1069	2867	0.011281	0.050771	0	457	0	0	0	0	1	-360	360	37.2673	-34.0044	-37.0023	35.1974	0.0000	0.0000	0.0000	0.0000;
	1069	2588	0.0115	0.049719	0	438	0	0	0	0	1	-360	360	-37.2673	43.4495	37.6152	-41.9454	0.0000	0.0000	0.0000	0.0000;
	3945	2867	0.011719	0.048659	0	438	0	0	0	0	1	-360	360	38.0080	-36.0498	-37.7110	37.2827	0.0000	0.0000	0.0000	0.0000;
	3945	2588	0.01193	0.047599	0	438	0	0	0	0	1	-360	360	-38.0080	45.8519	38.3987	-44.2931	0.0000	0.0000	0.0000	0.0000;
	132	2962	0.00064	0.00715	0	1481	0	0	0	0	1	-360	360	-126.0107	21.2264	126.0985	-20.2457	0.0000	0.0000	0.0000	0.0000;
	132	4393	0.00089	0.00712	0	1283	0	0	0	0	1	-360	360	126.0107	4.2387	-125.8918	-3.2880	0.0000	0.0000	0.0000	0.0000;
	5044	693	0.00048	0.00555	0	987	0	0	0	0	1	-360	360	-88.1685	-13.1194	88.2008	13.4933	0.0000	0.0000	0.0000	0.0000;
	5044	7860	0.00047	0.00566	0	1086	0	0	0	0	1	-360	360	88.1685	27.2867	-88.1345	-26.8779	0.0000	0.0000	0.0000	0.0000;
	6883	693	0.00046	0.00524	0	1053	0	0	0	0	1	-360	360	-95.4051	-13.7039	95.4414	14.1166	0.0000	0.0000	0.0000	0.0000;
	6883	7860	0.00052	0.00514	0	1053	0	0	0	0	1	-360	360	95.4051	28.3310	-95.3615	-27.8994	0.0000	0.0000	0.0000	0.0000;
	1456	4503	0.00438	0.010686	0	0	0	0	0	0	1	-360	360	-26.1398	-3.9954	26.1695	4.0678	0.0000	0.0000	0.0000	0.0000;
	1456	6658	0.031347	0.062653	0	0	0	0	0	0	1	-360	360	26.1398	4.3772	-25.9264	-3.9507	0.0000	0.0000	0.0000	0.0000;
	6494	4945	0.00029	0.00298	0	1613	0	0	0	0	1	-360	360	-721.1048	60.8000	722.3962	-47.5300	0.0000	0.0000	0.0000	0.0000;
	6494	6080	0.0003	0.00291	0	1514	0	0	0	0	1	-360	360	721.1048	-51.1566	-719.7717	64.0882	0.0000	0.0000	0.0000	0.0000;
	1384	9010	0.00155	0.01529	0	1185	0	0	0	0	1	-360	360	-16.0045	137.6953	16.2426	-135.3471	0.0000	0.0000	0.0000	0.0000;
	1384	3146	0.00148	0.0152	0	1283	0	0	0	0	1	-360	360	16.0045	-84.7424	-15.9165	85.6459	0.0000	0.0000	0.0000	0.0000;
	8697	8142	0.000169	0.00096	0	312	0	0	0	0	1	-360	360	1.7654	-64.5876	-1.7583	64.6278	0.0000	0.0000	0.0000	0.0000;
	8697	6195	0.000182	0.000942	0	312	0	0	0	0	1	-360	360	-1.7654	65.1361	1.7731	-65.0960	0.0000	0.0000	0.0000	0.0000;
	5665	424	0.00016	0.00184	0	0	0	0	0	0	1	-360	360	-368.0177	167.9529	368.2578	-165.1918	0.0000	0.0000	0.0000	0.0000;
	5665	7235	0.00022	0.00287	0	0	0	0	0	0	1	-360	360	368.0177	-160.8317	-367.6923	165.0768	0.0000	0.0000	0.0000	0.0000;
	3852	6497	0.00015	0.00187	0	0	0	0	0	0	1	-360	360	-307.0317	108.9544	307.1745	-107.1744	0.0000	0.0000	0.0000	0.0000;
	3852	4779	0.00022	0.00266	0	0	0	0	0	0	1	-360	360	307.0317	-101.8294	-306.8252	104.3256	0.0000	0.0000	0.0000	0.0000;
	674	8885	0.00138	0.0174	0	1316	0	0	0	0	1	-360	360	29.9178	11.2832	-29.9064	-11.1396	0.0000	0.0000	0.0000	0.0000;
	674	3115	0.00272	0.0288	0	1086	0	0	0	0	1	-360	360	-29.9178	70.2376	30.0458	-68.8824	0.0000	0.0000	0.0000	0.0000;
	8126	5177	0.00065	0.01024	0	1843	0	0	0	0	1	-360	360	371.8593	5.4873	-371.0263	7.6362	0.0000	0.0000	0.0000	0.0000;
	8126	6007	0.00073	0.01004	0	1876	0	0	0	0	1	-360	360	-371.8593	20.3162	372.7975	-7.4134	0.0000	0.0000	0.0000	0.0000;
	8935	5177	0.00075	0.00983	0	1909	0	0	0	0	1	-360	360	387.2827	2.6986	-386.2407	10.9591	0.0000	0.0000	0.0000	0.0000;
	8935	6007	0.00076	0.00963	0	1909	0	0	0	0	1	-360	360	-387.2827	25.5323	388.3432	-12.0950	0.0000	0.0000	0.0000	0.0000;
	7146	7388	0.00042	0.02666	0	1185	0	0	0	0	1	-360	360	0.0000	0.0000	0.0000	0.0000	0.0000	0.0000	0.0000	0.0000;
	4003	8855	0.00029	0.0026	0	0	0	0	0	0	1	-360	360	759.5211	-88.2408	-757.9238	102.5609	0.0000	0.0000	0.0000	0.0000;
	4003	5781	0.00022	0.00303	0	1185	0	0	0	0	1	-360	360	-759.5211	99.3126	760.7371	-82.5650	0.0000	0.0000	0.0000	0.0000;
	6996	3761	0.001	0.006159	0	0	0	0	0	0	1	-360	360	411.8346	75.2498	-410.2420	-65.4414	0.0000	0.0000	0.0000	0.0000;
	6996	9108	0.00113	0.00657	0	533	0	0	0	0	1	-360	360	-411.8346	-73.7420	413.6318	84.1916	0.0000	0.0000	0.0000	0.0000;
	1212	8258	0.0013	0.01277	0	1316	0	0	0	0	1	-360	360	184.9023	18.7371	-184.5670	-15.4435	0.0000	0.0000	0.0000	0.0000;
	1212	7330	0.00163	0.01808	0	1382	0	0	0	0	1	-360	360	-184.9023	28.3756	185.3282	-23.6512	0.0000	0.0000	0.0000	0.0000;
	8644	106	0.00047	0.00406	0	1316	0	0	0	0	1	-360	360	181.1830	15.1187	-181.0679	-14.1242	0.0000	0.0000	0.0000	0.0000;
	8644	5883	0.00235	0.02343	0	1316	0	0	0	0	1	-360	360	-181.1830	28.4440	181.7687	-22.6042	0.0000	0.0000	0.0000	0.0000;
	97	6413	0.00036	0.00445	0	1547	0	0	0	0	1	-360	360	561.4747	125.3971	-560.3607	-111.6268	0.0000	0.0000	0.0000	0.0000;
	97	1644	0.00017	0.0025	0	1909	0	0	0	0	1	-360	360	-561.4747	-115.3644	561.9969	123.0441	0.0000	0.0000	0.0000	0.0000;
	4379	6413	0.00036	0.00436	0	1580	0	0	0	0	1	-360	360	453.3508	107.2030	-452.6188	-98.3369	0.0000	0.0000	0.0000	0.0000;
	4379	3483	0.00017	0.00255	0	1810	0	0	0	0	1	-360	360	-453.3508	-96.9896	453.6932	102.1252	0.0000	0.0000	0.0000	0.0000;
	1885	3208	0.00096	0.00995	0	1349	0	0	0	0	1	-360	360	110.5519	-6.1397	-110.4538	7.1567	0.0000	0.0000	0.0000	0.0000;
	1885	6790	0.00152	0.01949	0	1382	0	0	0	0	1	-360	360	-110.5519	41.9804	110.7291	-39.7082	0.0000	0.0000	0.0000	0.0000;
	5314	3208	0.00094	0.01014	0	1251	0	0	0	0	1	-360	360	108.6033	-5.7408	-108.5106	6.7407	0.0000	0.0000	0.0000	0.0000;
	5314	6790	0.00149	0.01986	0	1415	0	0	0	0	1	-360	360	-108.6033	40.8251	108.7705	-38.5963	0.0000	0.0000	0.0000	0.0000;
	2885	3208	0.00107	0.01243	0	1152	0	0	0	0	1	-360	360	91.8496	38.1081	-91.7622	-37.0923	0.0000	0.0000	0.0000	0.0000;
	2885	2585	0.00102	0.01034	0	1218	0	0	0	0	1	-360	360	-91.8496	-8.1848	91.9213	8.9115	0.0000	0.0000	0.0000	0.0000;
	3717	4848	0.0047	0.02061	0	438	0	0	0	0	1	-360	360	-112.9278	-49.6197	113.5384	52.2969	0.0000	0.0000	0.0000	0.0000;
	3717	3688	0.00739	0.040531	0	400	0	0	0	0	1	-360	360	112.9278	55.0897	-111.9318	-49.6266	0.0000	0.0000	0.0000	0.0000;
	6064	8640	0.00049	0.00611	0	1942	0	0	0	0	1	-360	360	-204.3820	-45.6703	204.5421	47.6660	0.0000	0.0000	0.0000	0.0000;
	6064	7330	0.00035	0.00431	0	1547	0	0	0	0	1	-360	360	204.3820	64.5090	-204.2623	-63.0346	0.0000	0.0000	0.0000	0.0000;
	5377	1029	0.00261	0.01344	0	419	0	0	0	0	1	-360	360	-27.6670	11.6855	27.6904	-11.5651	0.0000	0.0000	0.0000	0.0000;
	5377	3525	0.003521	0.019591	0	419	0	0	0	0	1	-360	360	27.6670	-8.7042	-27.6376	8.8678	0.0000	0.0000	0.0000	0.0000;
	6870	3431	0.0025	0.01419	0	0	0	0	0	0	1	-360	360	-19.7941	-13.1383	19.8082	13.2183	0.0000	0.0000	0.0000	0.0000;
	6870	5046	0.00287	0.0237	0	381	0	0	0	0	1	-360	360	19.7941	16.8104	-19.7748	-16.6507	0.0000	0.0000	0.0000	0.0000;
	6693	6743	0.00088	0.00956	0	1547	0	0	0	0	1	-360	360	225.3046	-131.5160	-224.7952	137.0501	0.0000	0.0000	0.0000	0.0000;
	6693	287	0.00095	0.00877	0	1382	0	0	0	0	1	-360	360	-225.3046	156.2409	225.9121	-150.6334	0.0000	0.0000	0.0000	0.0000;
	2053	752	0.00332	0.020651	0	457	0	0	0	0	1	-360	360	-96.2503	18.7745	96.5384	-16.9826	0.0000	0.0000	0.0000	0.0000;
	2053	3048	0.003969	0.018781	0	457	0	0	0	0	1	-360	360	96.2503	-15.4608	-95.9100	17.0712	0.0000	0.0000	0.0000	0.0000;
	2893	2738	0.002849	0.014909	0	438	0	0	0	0	1	-360	360	-5.8651	25.5083	5.8846	-25.4066	0.0000	0.0000	0.0000	0.0000;
	2893	1575	0.00439	0.02451	0	438	0	0	0	0	1	-360	360	5.8651	-22.6782	-5.8411	22.8122	0.0000	0.0000	0.0000	0.0000;
	1524	8687	0.0002	0.0018	0	0	0	0	0	0	1	-360	360	-485.8357	75.4329	486.2813	-71.4226	0.0000	0.0000	0.0000	0.0000;
	1524	8393	0.00025	0.00261	0	0	0	0	0	0	1	-360	360	485.8357	-67.5994	-485.2813	73.3874	0.0000	0.0000	0.0000	0.0000;
	7369	8687	0.0002	0.00176	0	0	0	0	0	0	1	-360	360	-486.6950	78.2965	487.1429	-74.3547	0.0000	0.0000	0.0000	0.0000;
	7369	139	0.00025	0.00255	0	1909	0	0	0	0	1	-360	360	486.6950	-70.3216	-486.1378	76.0048	0.0000	0.0000	0.0000	0.0000;
	1019	6176	0.012488	0.047413	0	0	0	0	0	0	1	-360	360	-12.3036	0.8847	12.3210	-0.8187	0.0000	0.0000	0.0000	0.0000;
	1019	7177	0.010479	0.027711	0	0	0	0	0	0	1	-360	360	12.3036	-0.5462	-12.2891	0.5847	0.0000	0.0000	0.0000	0.0000;
	2607	7458	0.00044	0.00428	0	1810	0	0	0	0	1	-360	360	370.9175	-63.0501	-370.3754	68.3232	0.0000	0.0000	0.0000	0.0000;
	2607	1337	0.00036	0.00475	0	0	0	0	0	0	1	-360	360	-370.9175	76.3091	371.3669	-70.3806	0.0000	0.0000	0.0000	0.0000;
	4735	5239	0.00058	0.00534	0	1876	0	0	0	0	1	-360	360	-136.6430	-100.1501	136.7943	101.5431	0.0000	0.0000	0.0000	0.0000;
	4735	3145	0.00054	0.00589	0	1843	0	0	0	0	1	-360	360	136.6430	115.1034	-136.4863	-113.3947	0.0000	0.0000	0.0000	0.0000;
	2941	1429	0.00206	0.02057	0	1152	0	0	0	0	1	-360	360	7.8861	-44.1359	-7.8507	44.4888	0.0000	0.0000	0.0000	0.0000;
	2941	1542	0.00077	0.00872	0	954	0	0	0	0	1	-360	360	-7.8861	86.2367	7.9353	-85.6786	0.0000	0.0000	0.0000	0.0000;
	3773	9183	0.00161	0.01963	0	1349	0	0	0	0	1	-360	360	-11.6176	-24.6788	11.6279	24.8038	0.0000	0.0000	0.0000	0.0000;
	3773	1542	0.00075	0.00888	0	1382	0	0	0	0	1	-360	360	11.6176	59.8133	-11.5937	-59.5310	0.0000	0.0000	0.0000	0.0000;
	1937	7261	0.00016	0.00152	0	1645	0	0	0	0	1	-360	360	22.8867	34.0697	-22.8840	-34.0446	0.0000	0.0000	0.0000	0.0000;
	1937	5479	0.00019	0.00163	0	1711	0	0	0	0	1	-360	360	-22.8867	-29.2086	22.8892	29.2306	0.0000	0.0000	0.0000	0.0000;
	5473	7261	0.00015	0.0016	0	1547	0	0	0	0	1	-360	360	20.4073	31.9365	-20.4052	-31.9140	0.0000	0.0000	0.0000	0.0000;
	5473	5479	0.00015	0.00183	0	1645	0	0	0	0	1	-360	360	-20.4073	-27.4227	20.4090	27.4437	0.0000	0.0000	0.0000	0.0000;
	3648	3290	0.00121	0.01426	0	1415	0	0	0	0	1	-360	360	-572.1980	139.4969	576.3020	-91.1312	0.0000	0.0000	0.0000	0.0000;
	3648	5523	0.00116	0.01456	0	1448	0	0	0	0	1	-360	360	572.1980	-80.3132	-568.4112	127.8444	0.0000	0.0000	0.0000	0.0000;
	451	144	0.00068	0.00727	0	1777	0	0	0	0	1	-360	360	-73.4342	84.9316	73.5137	-84.0813	0.0000	0.0000	0.0000	0.0000;
	451	1601	0.0007	0.00734	0	1876	0	0	0	0	1	-360	360	73.4342	-60.4551	-73.3754	61.0713	0.0000	0.0000	0.0000	0.0000;
	7898	144	0.00076	0.00712	0	1580	0	0	0	0	1	-360	360	-73.8149	89.0666	73.9092	-88.1827	0.0000	0.0000	0.0000	0.0000;
	7898	1601	0.0008	0.00719	0	1909	0	0	0	0	1	-360	360	73.8149	-61.3298	-73.7465	61.9441	0.0000	0.0000	0.0000	0.0000;
	2105	1582	0.0002	0.0022	0	1218	0	0	0	0	1	-360	360	-188.8364	45.6454	188.9073	-44.8654	0.0000	0.0000	0.0000	0.0000;
	2105	7416	0.0002	0.0022	0	1251	0	0	0	0	1	-360	360	188.8364	-39.0232	-188.7666	39.7915	0.0000	0.0000	0.0000	0.0000;
	270	2046	0.000205	0.00215	0	1415	0	0	0	0	1	-360	360	-188.3063	44.0795	188.3783	-43.3243	0.0000	0.0000	0.0000	0.0000;
	270	7416	0.000205	0.00215	0	1448	0	0	0	0	1	-360	360	188.3063	-37.3288	-188.2353	38.0729	0.0000	0.0000	0.0000	0.0000;
	5938	8433	0.00053	0.00589	0	1316	0	0	0	0	1	-360	360	79.9788	89.3896	-79.9119	-88.6465	0.0000	0.0000	0.0000	0.0000;
	5938	816	0.00046	0.00675	0	1119	0	0	0	0	1	-360	360	-79.9788	-72.1258	80.0256	72.8124	0.0000	0.0000	0.0000	0.0000;
	8539	8433	0.00054	0.00577	0	1316	0	0	0	0	1	-360	360	84.4090	92.9445	-84.3343	-92.1470	0.0000	0.0000	0.0000	0.0000;
	8539	816	0.00045	0.00625	0	1086	0	0	0	0	1	-360	360	-84.4090	-75.6654	84.4597	76.3695	0.0000	0.0000	0.0000	0.0000;
	1654	1544	0.00275	0.02752	0	1382	0	0	0	0	1	-360	360	-22.6273	-67.2874	22.7361	68.3765	0.0000	0.0000	0.0000	0.0000;
...